                                  SEAWAT Version 4
      U.S. GEOLOGICAL SURVEY MODULAR FINITE-DIFFERENCE GROUND-WATER FLOW MODEL
                           VERSION 4.00.05 10/19/2012


 This model run combines GLOBAL and LIST output into this single file.

 GLOBAL LISTING FILE: henry.list
                         UNIT    2

 OPENING henry.dis
 FILE TYPE:DIS   UNIT   11   STATUS:OLD    
 FORMAT:FORMATTED              ACCESS:SEQUENTIAL          

 OPENING henry.bas
 FILE TYPE:BAS6   UNIT   13   STATUS:OLD    
 FORMAT:FORMATTED              ACCESS:SEQUENTIAL          

 OPENING henry.lpf
 FILE TYPE:LPF   UNIT   15   STATUS:OLD    
 FORMAT:FORMATTED              ACCESS:SEQUENTIAL          

 OPENING henry.pcg
 FILE TYPE:PCG   UNIT   27   STATUS:OLD    
 FORMAT:FORMATTED              ACCESS:SEQUENTIAL          

 OPENING henry.oc
 FILE TYPE:OC   UNIT   14   STATUS:OLD    
 FORMAT:FORMATTED              ACCESS:SEQUENTIAL          

 OPENING henry.wel
 FILE TYPE:WEL   UNIT   20   STATUS:OLD    
 FORMAT:FORMATTED              ACCESS:SEQUENTIAL          

 OPENING henry.btn
 FILE TYPE:BTN   UNIT   31   STATUS:OLD    
 FORMAT:FORMATTED              ACCESS:SEQUENTIAL          

 OPENING henry.adv
 FILE TYPE:ADV   UNIT   32   STATUS:OLD    
 FORMAT:FORMATTED              ACCESS:SEQUENTIAL          

 OPENING henry.dsp
 FILE TYPE:DSP   UNIT   33   STATUS:OLD    
 FORMAT:FORMATTED              ACCESS:SEQUENTIAL          

 OPENING henry.gcg
 FILE TYPE:GCG   UNIT   35   STATUS:OLD    
 FORMAT:FORMATTED              ACCESS:SEQUENTIAL          

 OPENING henry.ssm
 FILE TYPE:SSM   UNIT   34   STATUS:OLD    
 FORMAT:FORMATTED              ACCESS:SEQUENTIAL          

 OPENING henry.vdf
 FILE TYPE:VDF   UNIT   37   STATUS:OLD    
 FORMAT:FORMATTED              ACCESS:SEQUENTIAL          

 OPENING henry.cbc
 FILE TYPE:DATA(BINARY)   UNIT   53   STATUS:REPLACE
 FORMAT:UNFORMATTED            ACCESS:STREAM              

 OPENING henry.hds
 FILE TYPE:DATA(BINARY)   UNIT   51   STATUS:REPLACE
 FORMAT:UNFORMATTED            ACCESS:STREAM              

 THE FREE FORMAT OPTION HAS BEEN SELECTED

 DISCRETIZATION INPUT DATA READ FROM UNIT   11
 # DIS package for  SEAWAT, generated by Flopy.
   50 LAYERS         1 ROWS       100 COLUMNS
    1 STRESS PERIOD(S) IN SIMULATION
 MODEL TIME UNIT IS DAYS
 MODEL LENGTH UNIT IS METERS
  ----- 
 | M T | ## BTN for MT3DMS, generated by Flopy.                                          
 | 3 D | ##                                                                              
  ----- 
 THE TRANSPORT MODEL CONSISTS OF    50 LAYER(S)    1 ROW(S)  100 COLUMN(S)
 NUMBER OF STRESS PERIOD(S) FOR TRANSPORT SIMULATION =    1
 NUMBER OF ALL COMPONENTS INCLUDED IN SIMULATION =    1
 NUMBER OF MOBILE COMPONENTS INCLUDED IN SIMULATION =    1
 UNIT FOR TIME IS D   ;  UNIT FOR LENGTH IS M   ;  UNIT FOR MASS IS KG  
 OPTIONAL PACKAGES INCLUDED IN CURRENT SIMULATION:
  o ADV   ON UNIT 32
  o DSP   ON UNIT 33
  o SSM   ON UNIT 34
  o GCG   ON UNIT 35


 VDF -- VARIABLE DENSITY FLOW, VERSION 1, 2/13/2004
         INPUT READ FROM UNIT 37

 COUPLING BETWEEN FLOW AND TRANSPORT IS EXPLICIT
 VARIABLE-DENSITY WATER-TABLE CORRECTIONS NOT ADDED
 MT3DMS SPECIES USED IN EQUATION OF STATE FOR FLUID DENSITY:          1
 AN UPSTREAM-WEIGHTED ALGORITHM IS USED TO CALCULATE FLUID DENSITY TERMS THAT CONSERVE MASS
  1000.     REFERENCE DENSITY
 0.7143     DENSITY SLOPE FOR EQUATION OF STATE
 DENSITY EQUATION OF STATE
 RHO =     1000.00    
  + 0.7143     * ( CONC(   1) -  0.000     )



 FIRSTDT SPECIFIED BY USER IN THE VDF FILE IS:   0.1000000E-02
 THE GROUND-WATER TRANSPORT PROCESS IS INACTIVE

 THE OBSERVATION PROCESS IS INACTIVE
 THE SENSITIVITY PROCESS IS INACTIVE
 THE PARAMETER-ESTIMATION PROCESS IS INACTIVE

 MODE: FORWARD

  Confining bed flag for each layer:
   0   0   0   0   0   0   0   0   0   0   0   0   0   0   0   0   0   0   0   0
   0   0   0   0   0   0   0   0   0   0   0   0   0   0   0   0   0   0   0   0
   0   0   0   0   0   0   0   0   0   0

      45101  ELEMENTS OF GX ARRAY USED OUT OF      45101
       5000  ELEMENTS OF GZ ARRAY USED OUT OF       5000
       5000  ELEMENTS OF IG ARRAY USED OUT OF       5000

                     DELR =  2.000000E-02

                     DELC =   1.00000    

 TOP ELEVATION OF LAYER 1 =   1.00000    

   MODEL LAYER BOTTOM EL. =  0.980000     FOR LAYER   1

   MODEL LAYER BOTTOM EL. =  0.960000     FOR LAYER   2

   MODEL LAYER BOTTOM EL. =  0.940000     FOR LAYER   3

   MODEL LAYER BOTTOM EL. =  0.920000     FOR LAYER   4

   MODEL LAYER BOTTOM EL. =  0.900000     FOR LAYER   5

   MODEL LAYER BOTTOM EL. =  0.880000     FOR LAYER   6

   MODEL LAYER BOTTOM EL. =  0.860000     FOR LAYER   7

   MODEL LAYER BOTTOM EL. =  0.840000     FOR LAYER   8

   MODEL LAYER BOTTOM EL. =  0.820000     FOR LAYER   9

   MODEL LAYER BOTTOM EL. =  0.800000     FOR LAYER  10

   MODEL LAYER BOTTOM EL. =  0.780000     FOR LAYER  11

   MODEL LAYER BOTTOM EL. =  0.760000     FOR LAYER  12

   MODEL LAYER BOTTOM EL. =  0.740000     FOR LAYER  13

   MODEL LAYER BOTTOM EL. =  0.720000     FOR LAYER  14

   MODEL LAYER BOTTOM EL. =  0.700000     FOR LAYER  15

   MODEL LAYER BOTTOM EL. =  0.680000     FOR LAYER  16

   MODEL LAYER BOTTOM EL. =  0.660000     FOR LAYER  17

   MODEL LAYER BOTTOM EL. =  0.640000     FOR LAYER  18

   MODEL LAYER BOTTOM EL. =  0.620000     FOR LAYER  19

   MODEL LAYER BOTTOM EL. =  0.600000     FOR LAYER  20

   MODEL LAYER BOTTOM EL. =  0.580000     FOR LAYER  21

   MODEL LAYER BOTTOM EL. =  0.560000     FOR LAYER  22

   MODEL LAYER BOTTOM EL. =  0.540000     FOR LAYER  23

   MODEL LAYER BOTTOM EL. =  0.520000     FOR LAYER  24

   MODEL LAYER BOTTOM EL. =  0.500000     FOR LAYER  25

   MODEL LAYER BOTTOM EL. =  0.480000     FOR LAYER  26

   MODEL LAYER BOTTOM EL. =  0.460000     FOR LAYER  27

   MODEL LAYER BOTTOM EL. =  0.440000     FOR LAYER  28

   MODEL LAYER BOTTOM EL. =  0.420000     FOR LAYER  29

   MODEL LAYER BOTTOM EL. =  0.400000     FOR LAYER  30

   MODEL LAYER BOTTOM EL. =  0.380000     FOR LAYER  31

   MODEL LAYER BOTTOM EL. =  0.360000     FOR LAYER  32

   MODEL LAYER BOTTOM EL. =  0.340000     FOR LAYER  33

   MODEL LAYER BOTTOM EL. =  0.320000     FOR LAYER  34

   MODEL LAYER BOTTOM EL. =  0.300000     FOR LAYER  35

   MODEL LAYER BOTTOM EL. =  0.280000     FOR LAYER  36

   MODEL LAYER BOTTOM EL. =  0.260000     FOR LAYER  37

   MODEL LAYER BOTTOM EL. =  0.240000     FOR LAYER  38

   MODEL LAYER BOTTOM EL. =  0.220000     FOR LAYER  39

   MODEL LAYER BOTTOM EL. =  0.200000     FOR LAYER  40

   MODEL LAYER BOTTOM EL. =  0.180000     FOR LAYER  41

   MODEL LAYER BOTTOM EL. =  0.160000     FOR LAYER  42

   MODEL LAYER BOTTOM EL. =  0.140000     FOR LAYER  43

   MODEL LAYER BOTTOM EL. =  0.120000     FOR LAYER  44

   MODEL LAYER BOTTOM EL. =  0.100000     FOR LAYER  45

   MODEL LAYER BOTTOM EL. =  8.000000E-02 FOR LAYER  46

   MODEL LAYER BOTTOM EL. =  6.000000E-02 FOR LAYER  47

   MODEL LAYER BOTTOM EL. =  4.000000E-02 FOR LAYER  48

   MODEL LAYER BOTTOM EL. =  2.000000E-02 FOR LAYER  49

   MODEL LAYER BOTTOM EL. =   0.00000     FOR LAYER  50


 STRESS PERIOD     LENGTH       TIME STEPS     MULTIPLIER FOR DELT    SS FLAG
 ----------------------------------------------------------------------------
        1         1.500000         15                    1.000         SS

 STEADY-STATE SIMULATION




 LPF1 -- LAYER PROPERTY FLOW PACKAGE, VERSION 1, 1/11/2000
         INPUT READ FROM UNIT   15
 # LPF package for  SEAWAT, generated by Flopy.
 CELL-BY-CELL FLOWS WILL BE SAVED ON UNIT   53
 HEAD AT CELLS THAT CONVERT TO DRY= -1.00000E+30
 No named parameters

   LAYER FLAGS:
 LAYER       LAYTYP        LAYAVG         CHANI        LAYVKA        LAYWET
 ---------------------------------------------------------------------------
    1             0             0     1.000E+00             0             0
    2             0             0     1.000E+00             0             0
    3             0             0     1.000E+00             0             0
    4             0             0     1.000E+00             0             0
    5             0             0     1.000E+00             0             0
    6             0             0     1.000E+00             0             0
    7             0             0     1.000E+00             0             0
    8             0             0     1.000E+00             0             0
    9             0             0     1.000E+00             0             0
   10             0             0     1.000E+00             0             0
   11             0             0     1.000E+00             0             0
   12             0             0     1.000E+00             0             0
   13             0             0     1.000E+00             0             0
   14             0             0     1.000E+00             0             0
   15             0             0     1.000E+00             0             0
   16             0             0     1.000E+00             0             0
   17             0             0     1.000E+00             0             0
   18             0             0     1.000E+00             0             0
   19             0             0     1.000E+00             0             0
   20             0             0     1.000E+00             0             0
   21             0             0     1.000E+00             0             0
   22             0             0     1.000E+00             0             0
   23             0             0     1.000E+00             0             0
   24             0             0     1.000E+00             0             0
   25             0             0     1.000E+00             0             0
   26             0             0     1.000E+00             0             0
   27             0             0     1.000E+00             0             0
   28             0             0     1.000E+00             0             0
   29             0             0     1.000E+00             0             0
   30             0             0     1.000E+00             0             0
   31             0             0     1.000E+00             0             0
   32             0             0     1.000E+00             0             0
   33             0             0     1.000E+00             0             0
   34             0             0     1.000E+00             0             0
   35             0             0     1.000E+00             0             0
   36             0             0     1.000E+00             0             0
   37             0             0     1.000E+00             0             0
   38             0             0     1.000E+00             0             0
   39             0             0     1.000E+00             0             0
   40             0             0     1.000E+00             0             0
   41             0             0     1.000E+00             0             0
   42             0             0     1.000E+00             0             0
   43             0             0     1.000E+00             0             0
   44             0             0     1.000E+00             0             0
   45             0             0     1.000E+00             0             0
   46             0             0     1.000E+00             0             0
   47             0             0     1.000E+00             0             0
   48             0             0     1.000E+00             0             0
   49             0             0     1.000E+00             0             0
   50             0             0     1.000E+00             0             0

   INTERPRETATION OF LAYER FLAGS:
                        INTERBLOCK     HORIZONTAL    DATA IN
         LAYER TYPE   TRANSMISSIVITY   ANISOTROPY   ARRAY VKA   WETTABILITY
 LAYER      (LAYTYP)      (LAYAVG)       (CHANI)      (LAYVKA)      (LAYWET)
 ---------------------------------------------------------------------------
    1      CONFINED      HARMONIC     1.000E+00    VERTICAL K  NON-WETTABLE
    2      CONFINED      HARMONIC     1.000E+00    VERTICAL K  NON-WETTABLE
    3      CONFINED      HARMONIC     1.000E+00    VERTICAL K  NON-WETTABLE
    4      CONFINED      HARMONIC     1.000E+00    VERTICAL K  NON-WETTABLE
    5      CONFINED      HARMONIC     1.000E+00    VERTICAL K  NON-WETTABLE
    6      CONFINED      HARMONIC     1.000E+00    VERTICAL K  NON-WETTABLE
    7      CONFINED      HARMONIC     1.000E+00    VERTICAL K  NON-WETTABLE
    8      CONFINED      HARMONIC     1.000E+00    VERTICAL K  NON-WETTABLE
    9      CONFINED      HARMONIC     1.000E+00    VERTICAL K  NON-WETTABLE
   10      CONFINED      HARMONIC     1.000E+00    VERTICAL K  NON-WETTABLE
   11      CONFINED      HARMONIC     1.000E+00    VERTICAL K  NON-WETTABLE
   12      CONFINED      HARMONIC     1.000E+00    VERTICAL K  NON-WETTABLE
   13      CONFINED      HARMONIC     1.000E+00    VERTICAL K  NON-WETTABLE
   14      CONFINED      HARMONIC     1.000E+00    VERTICAL K  NON-WETTABLE
   15      CONFINED      HARMONIC     1.000E+00    VERTICAL K  NON-WETTABLE
   16      CONFINED      HARMONIC     1.000E+00    VERTICAL K  NON-WETTABLE
   17      CONFINED      HARMONIC     1.000E+00    VERTICAL K  NON-WETTABLE
   18      CONFINED      HARMONIC     1.000E+00    VERTICAL K  NON-WETTABLE
   19      CONFINED      HARMONIC     1.000E+00    VERTICAL K  NON-WETTABLE
   20      CONFINED      HARMONIC     1.000E+00    VERTICAL K  NON-WETTABLE
   21      CONFINED      HARMONIC     1.000E+00    VERTICAL K  NON-WETTABLE
   22      CONFINED      HARMONIC     1.000E+00    VERTICAL K  NON-WETTABLE
   23      CONFINED      HARMONIC     1.000E+00    VERTICAL K  NON-WETTABLE
   24      CONFINED      HARMONIC     1.000E+00    VERTICAL K  NON-WETTABLE
   25      CONFINED      HARMONIC     1.000E+00    VERTICAL K  NON-WETTABLE
   26      CONFINED      HARMONIC     1.000E+00    VERTICAL K  NON-WETTABLE
   27      CONFINED      HARMONIC     1.000E+00    VERTICAL K  NON-WETTABLE
   28      CONFINED      HARMONIC     1.000E+00    VERTICAL K  NON-WETTABLE
   29      CONFINED      HARMONIC     1.000E+00    VERTICAL K  NON-WETTABLE
   30      CONFINED      HARMONIC     1.000E+00    VERTICAL K  NON-WETTABLE
   31      CONFINED      HARMONIC     1.000E+00    VERTICAL K  NON-WETTABLE
   32      CONFINED      HARMONIC     1.000E+00    VERTICAL K  NON-WETTABLE
   33      CONFINED      HARMONIC     1.000E+00    VERTICAL K  NON-WETTABLE
   34      CONFINED      HARMONIC     1.000E+00    VERTICAL K  NON-WETTABLE
   35      CONFINED      HARMONIC     1.000E+00    VERTICAL K  NON-WETTABLE
   36      CONFINED      HARMONIC     1.000E+00    VERTICAL K  NON-WETTABLE
   37      CONFINED      HARMONIC     1.000E+00    VERTICAL K  NON-WETTABLE
   38      CONFINED      HARMONIC     1.000E+00    VERTICAL K  NON-WETTABLE
   39      CONFINED      HARMONIC     1.000E+00    VERTICAL K  NON-WETTABLE
   40      CONFINED      HARMONIC     1.000E+00    VERTICAL K  NON-WETTABLE
   41      CONFINED      HARMONIC     1.000E+00    VERTICAL K  NON-WETTABLE
   42      CONFINED      HARMONIC     1.000E+00    VERTICAL K  NON-WETTABLE
   43      CONFINED      HARMONIC     1.000E+00    VERTICAL K  NON-WETTABLE
   44      CONFINED      HARMONIC     1.000E+00    VERTICAL K  NON-WETTABLE
   45      CONFINED      HARMONIC     1.000E+00    VERTICAL K  NON-WETTABLE
   46      CONFINED      HARMONIC     1.000E+00    VERTICAL K  NON-WETTABLE
   47      CONFINED      HARMONIC     1.000E+00    VERTICAL K  NON-WETTABLE
   48      CONFINED      HARMONIC     1.000E+00    VERTICAL K  NON-WETTABLE
   49      CONFINED      HARMONIC     1.000E+00    VERTICAL K  NON-WETTABLE
   50      CONFINED      HARMONIC     1.000E+00    VERTICAL K  NON-WETTABLE

      10000 ELEMENTS IN X ARRAY ARE USED BY LPF
        300 ELEMENTS IN IX ARRAY ARE USED BY LPF

 PCG2 -- CONJUGATE GRADIENT SOLUTION PACKAGE, VERSION 2.4, 12/29/98
 # PCG package for  SEAWAT, generated by Flopy.
 MAXIMUM OF     50 CALLS OF SOLUTION ROUTINE
 MAXIMUM OF     30 INTERNAL ITERATIONS PER CALL TO SOLUTION ROUTINE
 MATRIX PRECONDITIONING TYPE :    1
      13000 ELEMENTS IN X ARRAY ARE USED BY PCG
      10500 ELEMENTS IN IX ARRAY ARE USED BY PCG
      20000 ELEMENTS IN Z ARRAY ARE USED BY PCG

      23000  ELEMENTS OF X ARRAY USED OUT OF      23000
      20000  ELEMENTS OF Z ARRAY USED OUT OF      20000
      10800  ELEMENTS OF IX ARRAY USED OUT OF      10800
          0  ELEMENTS OF XHS ARRAY USED OUT OF          1



                                    SOLUTION BY THE CONJUGATE-GRADIENT METHOD
                                   -------------------------------------------
                    MAXIMUM NUMBER OF CALLS TO PCG ROUTINE =       50
                        MAXIMUM ITERATIONS PER CALL TO PCG =       30
                               MATRIX PRECONDITIONING TYPE =        1
        RELAXATION FACTOR (ONLY USED WITH PRECOND. TYPE 1) =    0.10000E+01
 PARAMETER OF POLYNOMIAL PRECOND. = 2 (2) OR IS CALCULATED :        0
                         HEAD CHANGE CRITERION FOR CLOSURE =    0.10000E-07
                     RESIDUAL CHANGE CRITERION FOR CLOSURE =    0.10000E-04
            PCG HEAD AND RESIDUAL CHANGE PRINTOUT INTERVAL =      999
     PRINTING FROM SOLVER IS LIMITED(1) OR SUPPRESSED (>1) =        3
                                         DAMPING PARAMETER =    0.10000E+01

 WETTING CAPABILITY IS NOT ACTIVE IN ANY LAYER

    HYD. COND. ALONG ROWS =   864.000     FOR LAYER   1

      VERTICAL HYD. COND. =   864.000     FOR LAYER   1

    HYD. COND. ALONG ROWS =   864.000     FOR LAYER   2

      VERTICAL HYD. COND. =   864.000     FOR LAYER   2

    HYD. COND. ALONG ROWS =   864.000     FOR LAYER   3

      VERTICAL HYD. COND. =   864.000     FOR LAYER   3

    HYD. COND. ALONG ROWS =   864.000     FOR LAYER   4

      VERTICAL HYD. COND. =   864.000     FOR LAYER   4

    HYD. COND. ALONG ROWS =   864.000     FOR LAYER   5

      VERTICAL HYD. COND. =   864.000     FOR LAYER   5

    HYD. COND. ALONG ROWS =   864.000     FOR LAYER   6

      VERTICAL HYD. COND. =   864.000     FOR LAYER   6

    HYD. COND. ALONG ROWS =   864.000     FOR LAYER   7

      VERTICAL HYD. COND. =   864.000     FOR LAYER   7

    HYD. COND. ALONG ROWS =   864.000     FOR LAYER   8

      VERTICAL HYD. COND. =   864.000     FOR LAYER   8

    HYD. COND. ALONG ROWS =   864.000     FOR LAYER   9

      VERTICAL HYD. COND. =   864.000     FOR LAYER   9

    HYD. COND. ALONG ROWS =   864.000     FOR LAYER  10

      VERTICAL HYD. COND. =   864.000     FOR LAYER  10

    HYD. COND. ALONG ROWS =   864.000     FOR LAYER  11

      VERTICAL HYD. COND. =   864.000     FOR LAYER  11

    HYD. COND. ALONG ROWS =   864.000     FOR LAYER  12

      VERTICAL HYD. COND. =   864.000     FOR LAYER  12

    HYD. COND. ALONG ROWS =   864.000     FOR LAYER  13

      VERTICAL HYD. COND. =   864.000     FOR LAYER  13

    HYD. COND. ALONG ROWS =   864.000     FOR LAYER  14

      VERTICAL HYD. COND. =   864.000     FOR LAYER  14

    HYD. COND. ALONG ROWS =   864.000     FOR LAYER  15

      VERTICAL HYD. COND. =   864.000     FOR LAYER  15

    HYD. COND. ALONG ROWS =   864.000     FOR LAYER  16

      VERTICAL HYD. COND. =   864.000     FOR LAYER  16

    HYD. COND. ALONG ROWS =   864.000     FOR LAYER  17

      VERTICAL HYD. COND. =   864.000     FOR LAYER  17

    HYD. COND. ALONG ROWS =   864.000     FOR LAYER  18

      VERTICAL HYD. COND. =   864.000     FOR LAYER  18

    HYD. COND. ALONG ROWS =   864.000     FOR LAYER  19

      VERTICAL HYD. COND. =   864.000     FOR LAYER  19

    HYD. COND. ALONG ROWS =   864.000     FOR LAYER  20

      VERTICAL HYD. COND. =   864.000     FOR LAYER  20

    HYD. COND. ALONG ROWS =   864.000     FOR LAYER  21

      VERTICAL HYD. COND. =   864.000     FOR LAYER  21

    HYD. COND. ALONG ROWS =   864.000     FOR LAYER  22

      VERTICAL HYD. COND. =   864.000     FOR LAYER  22

    HYD. COND. ALONG ROWS =   864.000     FOR LAYER  23

      VERTICAL HYD. COND. =   864.000     FOR LAYER  23

    HYD. COND. ALONG ROWS =   864.000     FOR LAYER  24

      VERTICAL HYD. COND. =   864.000     FOR LAYER  24

    HYD. COND. ALONG ROWS =   864.000     FOR LAYER  25

      VERTICAL HYD. COND. =   864.000     FOR LAYER  25

    HYD. COND. ALONG ROWS =   864.000     FOR LAYER  26

      VERTICAL HYD. COND. =   864.000     FOR LAYER  26

    HYD. COND. ALONG ROWS =   864.000     FOR LAYER  27

      VERTICAL HYD. COND. =   864.000     FOR LAYER  27

    HYD. COND. ALONG ROWS =   864.000     FOR LAYER  28

      VERTICAL HYD. COND. =   864.000     FOR LAYER  28

    HYD. COND. ALONG ROWS =   864.000     FOR LAYER  29

      VERTICAL HYD. COND. =   864.000     FOR LAYER  29

    HYD. COND. ALONG ROWS =   864.000     FOR LAYER  30

      VERTICAL HYD. COND. =   864.000     FOR LAYER  30

    HYD. COND. ALONG ROWS =   864.000     FOR LAYER  31

      VERTICAL HYD. COND. =   864.000     FOR LAYER  31

    HYD. COND. ALONG ROWS =   864.000     FOR LAYER  32

      VERTICAL HYD. COND. =   864.000     FOR LAYER  32

    HYD. COND. ALONG ROWS =   864.000     FOR LAYER  33

      VERTICAL HYD. COND. =   864.000     FOR LAYER  33

    HYD. COND. ALONG ROWS =   864.000     FOR LAYER  34

      VERTICAL HYD. COND. =   864.000     FOR LAYER  34

    HYD. COND. ALONG ROWS =   864.000     FOR LAYER  35

      VERTICAL HYD. COND. =   864.000     FOR LAYER  35

    HYD. COND. ALONG ROWS =   864.000     FOR LAYER  36

      VERTICAL HYD. COND. =   864.000     FOR LAYER  36

    HYD. COND. ALONG ROWS =   864.000     FOR LAYER  37

      VERTICAL HYD. COND. =   864.000     FOR LAYER  37

    HYD. COND. ALONG ROWS =   864.000     FOR LAYER  38

      VERTICAL HYD. COND. =   864.000     FOR LAYER  38

    HYD. COND. ALONG ROWS =   864.000     FOR LAYER  39

      VERTICAL HYD. COND. =   864.000     FOR LAYER  39

    HYD. COND. ALONG ROWS =   864.000     FOR LAYER  40

      VERTICAL HYD. COND. =   864.000     FOR LAYER  40

    HYD. COND. ALONG ROWS =   864.000     FOR LAYER  41

      VERTICAL HYD. COND. =   864.000     FOR LAYER  41

    HYD. COND. ALONG ROWS =   864.000     FOR LAYER  42

      VERTICAL HYD. COND. =   864.000     FOR LAYER  42

    HYD. COND. ALONG ROWS =   864.000     FOR LAYER  43

      VERTICAL HYD. COND. =   864.000     FOR LAYER  43

    HYD. COND. ALONG ROWS =   864.000     FOR LAYER  44

      VERTICAL HYD. COND. =   864.000     FOR LAYER  44

    HYD. COND. ALONG ROWS =   864.000     FOR LAYER  45

      VERTICAL HYD. COND. =   864.000     FOR LAYER  45

    HYD. COND. ALONG ROWS =   864.000     FOR LAYER  46

      VERTICAL HYD. COND. =   864.000     FOR LAYER  46

    HYD. COND. ALONG ROWS =   864.000     FOR LAYER  47

      VERTICAL HYD. COND. =   864.000     FOR LAYER  47

    HYD. COND. ALONG ROWS =   864.000     FOR LAYER  48

      VERTICAL HYD. COND. =   864.000     FOR LAYER  48

    HYD. COND. ALONG ROWS =   864.000     FOR LAYER  49

      VERTICAL HYD. COND. =   864.000     FOR LAYER  49

    HYD. COND. ALONG ROWS =   864.000     FOR LAYER  50

      VERTICAL HYD. COND. =   864.000     FOR LAYER  50
 BTN5 -- BASIC TRANSPORT PACKAGE, VERSION 5, OCTOBER 2006, INPUT READ FROM UNIT 31
      75302 ELEMENTS OF THE  X ARRAY USED BY THE BTN PACKAGE
       5050 ELEMENTS OF THE IX ARRAY USED BY THE BTN PACKAGE

 FLOW MODEL IS STEADY-STATE

 ADV5 -- ADVECTION PACKAGE, VERSION 5, FEBRUARY 2005, INPUT READ FROM UNIT 32
 ADVECTION IS SOLVED WITH THE UPSTREAM FINITE DIFFERENCE SCHEME
 COURANT NUMBER ALLOWED IN SOLVING THE ADVECTION TERM = 0.750    
          0 ELEMENTS OF THE  X ARRAY USED BY THE ADV PACKAGE
          0 ELEMENTS OF THE IX ARRAY USED BY THE ADV PACKAGE

 DSP5 -- DISPERSION PACKAGE, VERSION 5, OCTOBER 2006, INPUT READ FROM UNIT 33
      55100 ELEMENTS OF THE  X ARRAY USED BY THE DSP PACKAGE
          0 ELEMENTS OF THE IX ARRAY USED BY THE DSP PACKAGE

 SSM5 -- SINK & SOURCE MIXING PACKAGE, VERSION 5, OCTOBER 2006, INPUT READ FROM UNIT 34
 HEADER LINE OF THE SSM PACKAGE INPUT FILE:
  T F F F F F F F F F F F F F F F                                                                                                                                                                        
 MAJOR STRESS COMPONENTS PRESENT IN THE FLOW MODEL:
  o WELL
 MAXIMUM NUMBER OF POINT SINKS/SOURCES =     100
       1300 ELEMENTS OF THE  X ARRAY USED BY THE SSM PACKAGE
          0 ELEMENTS OF THE IX ARRAY BY THE SSM PACKAGE

 GCG5 -- GENERALIZED CONJUGATE GRADIENT SOLVER PACKAGE, VERSION 5, FEBRUARY 2005 INPUT READ FROM UNIT 35
 MAXIMUM OF    1 OUTER ITERATIONS
        AND  500 INNER ITERATIONS ALLOWED FOR CLOSURE
 THE PRECONDITIONING TYPE SELECTED IS JACOBI.
 DISPERSION CROSS TERMS LUMPED INTO RIGHT-HAND-SIDE
      75500 ELEMENTS OF THE  X ARRAY USED BY THE GCG PACKAGE
       1500 ELEMENTS OF THE IX ARRAY USED BY THE GCG PACKAGE

 
 # BAS6 package for  SEAWAT, generated by Flopy.                                 
 THE FREE FORMAT OPTION HAS BEEN SELECTED
   50 LAYERS         1 ROWS       100 COLUMNS
    1 STRESS PERIOD(S) IN SIMULATION

 BAS6 -- BASIC PACKAGE, VERSION 6, 1/11/2000 INPUT READ FROM UNIT   13
        250 ELEMENTS IN IR ARRAY ARE USED BY BAS

 WEL6 -- WELL PACKAGE, VERSION 6, 1/11/2000 INPUT READ FROM UNIT   20
 # WEL package for  SEAWAT, generated by Flopy.
 No named parameters
 MAXIMUM OF     50 ACTIVE WELLS AT ONE TIME
        200 ELEMENTS IN RX ARRAY ARE USED BY WEL

        200  ELEMENTS OF RX ARRAY USED OUT OF        200
          0  ELEMENTS OF RZ ARRAY USED OUT OF          1
        250  ELEMENTS OF IR ARRAY USED OUT OF        250
1
 # BAS6 package for  SEAWAT, generated by Flopy.                                 
                                                                                 



                     BOUNDARY ARRAY FOR LAYER   1
 READING ON UNIT   13 WITH FORMAT:            (100I10) 



                     BOUNDARY ARRAY FOR LAYER   2
 READING ON UNIT   13 WITH FORMAT:            (100I10) 



                     BOUNDARY ARRAY FOR LAYER   3
 READING ON UNIT   13 WITH FORMAT:            (100I10) 



                     BOUNDARY ARRAY FOR LAYER   4
 READING ON UNIT   13 WITH FORMAT:            (100I10) 



                     BOUNDARY ARRAY FOR LAYER   5
 READING ON UNIT   13 WITH FORMAT:            (100I10) 



                     BOUNDARY ARRAY FOR LAYER   6
 READING ON UNIT   13 WITH FORMAT:            (100I10) 



                     BOUNDARY ARRAY FOR LAYER   7
 READING ON UNIT   13 WITH FORMAT:            (100I10) 



                     BOUNDARY ARRAY FOR LAYER   8
 READING ON UNIT   13 WITH FORMAT:            (100I10) 



                     BOUNDARY ARRAY FOR LAYER   9
 READING ON UNIT   13 WITH FORMAT:            (100I10) 



                     BOUNDARY ARRAY FOR LAYER  10
 READING ON UNIT   13 WITH FORMAT:            (100I10) 



                     BOUNDARY ARRAY FOR LAYER  11
 READING ON UNIT   13 WITH FORMAT:            (100I10) 



                     BOUNDARY ARRAY FOR LAYER  12
 READING ON UNIT   13 WITH FORMAT:            (100I10) 



                     BOUNDARY ARRAY FOR LAYER  13
 READING ON UNIT   13 WITH FORMAT:            (100I10) 



                     BOUNDARY ARRAY FOR LAYER  14
 READING ON UNIT   13 WITH FORMAT:            (100I10) 



                     BOUNDARY ARRAY FOR LAYER  15
 READING ON UNIT   13 WITH FORMAT:            (100I10) 



                     BOUNDARY ARRAY FOR LAYER  16
 READING ON UNIT   13 WITH FORMAT:            (100I10) 



                     BOUNDARY ARRAY FOR LAYER  17
 READING ON UNIT   13 WITH FORMAT:            (100I10) 



                     BOUNDARY ARRAY FOR LAYER  18
 READING ON UNIT   13 WITH FORMAT:            (100I10) 



                     BOUNDARY ARRAY FOR LAYER  19
 READING ON UNIT   13 WITH FORMAT:            (100I10) 



                     BOUNDARY ARRAY FOR LAYER  20
 READING ON UNIT   13 WITH FORMAT:            (100I10) 



                     BOUNDARY ARRAY FOR LAYER  21
 READING ON UNIT   13 WITH FORMAT:            (100I10) 



                     BOUNDARY ARRAY FOR LAYER  22
 READING ON UNIT   13 WITH FORMAT:            (100I10) 



                     BOUNDARY ARRAY FOR LAYER  23
 READING ON UNIT   13 WITH FORMAT:            (100I10) 



                     BOUNDARY ARRAY FOR LAYER  24
 READING ON UNIT   13 WITH FORMAT:            (100I10) 



                     BOUNDARY ARRAY FOR LAYER  25
 READING ON UNIT   13 WITH FORMAT:            (100I10) 



                     BOUNDARY ARRAY FOR LAYER  26
 READING ON UNIT   13 WITH FORMAT:            (100I10) 



                     BOUNDARY ARRAY FOR LAYER  27
 READING ON UNIT   13 WITH FORMAT:            (100I10) 



                     BOUNDARY ARRAY FOR LAYER  28
 READING ON UNIT   13 WITH FORMAT:            (100I10) 



                     BOUNDARY ARRAY FOR LAYER  29
 READING ON UNIT   13 WITH FORMAT:            (100I10) 



                     BOUNDARY ARRAY FOR LAYER  30
 READING ON UNIT   13 WITH FORMAT:            (100I10) 



                     BOUNDARY ARRAY FOR LAYER  31
 READING ON UNIT   13 WITH FORMAT:            (100I10) 



                     BOUNDARY ARRAY FOR LAYER  32
 READING ON UNIT   13 WITH FORMAT:            (100I10) 



                     BOUNDARY ARRAY FOR LAYER  33
 READING ON UNIT   13 WITH FORMAT:            (100I10) 



                     BOUNDARY ARRAY FOR LAYER  34
 READING ON UNIT   13 WITH FORMAT:            (100I10) 



                     BOUNDARY ARRAY FOR LAYER  35
 READING ON UNIT   13 WITH FORMAT:            (100I10) 



                     BOUNDARY ARRAY FOR LAYER  36
 READING ON UNIT   13 WITH FORMAT:            (100I10) 



                     BOUNDARY ARRAY FOR LAYER  37
 READING ON UNIT   13 WITH FORMAT:            (100I10) 



                     BOUNDARY ARRAY FOR LAYER  38
 READING ON UNIT   13 WITH FORMAT:            (100I10) 



                     BOUNDARY ARRAY FOR LAYER  39
 READING ON UNIT   13 WITH FORMAT:            (100I10) 



                     BOUNDARY ARRAY FOR LAYER  40
 READING ON UNIT   13 WITH FORMAT:            (100I10) 



                     BOUNDARY ARRAY FOR LAYER  41
 READING ON UNIT   13 WITH FORMAT:            (100I10) 



                     BOUNDARY ARRAY FOR LAYER  42
 READING ON UNIT   13 WITH FORMAT:            (100I10) 



                     BOUNDARY ARRAY FOR LAYER  43
 READING ON UNIT   13 WITH FORMAT:            (100I10) 



                     BOUNDARY ARRAY FOR LAYER  44
 READING ON UNIT   13 WITH FORMAT:            (100I10) 



                     BOUNDARY ARRAY FOR LAYER  45
 READING ON UNIT   13 WITH FORMAT:            (100I10) 



                     BOUNDARY ARRAY FOR LAYER  46
 READING ON UNIT   13 WITH FORMAT:            (100I10) 



                     BOUNDARY ARRAY FOR LAYER  47
 READING ON UNIT   13 WITH FORMAT:            (100I10) 



                     BOUNDARY ARRAY FOR LAYER  48
 READING ON UNIT   13 WITH FORMAT:            (100I10) 



                     BOUNDARY ARRAY FOR LAYER  49
 READING ON UNIT   13 WITH FORMAT:            (100I10) 



                     BOUNDARY ARRAY FOR LAYER  50
 READING ON UNIT   13 WITH FORMAT:            (100I10) 

 AQUIFER HEAD WILL BE SET TO -999.99     AT ALL NO-FLOW NODES (IBOUND=0).

             INITIAL HEAD =   0.00000     FOR LAYER   1

             INITIAL HEAD =   0.00000     FOR LAYER   2

             INITIAL HEAD =   0.00000     FOR LAYER   3

             INITIAL HEAD =   0.00000     FOR LAYER   4

             INITIAL HEAD =   0.00000     FOR LAYER   5

             INITIAL HEAD =   0.00000     FOR LAYER   6

             INITIAL HEAD =   0.00000     FOR LAYER   7

             INITIAL HEAD =   0.00000     FOR LAYER   8

             INITIAL HEAD =   0.00000     FOR LAYER   9

             INITIAL HEAD =   0.00000     FOR LAYER  10

             INITIAL HEAD =   0.00000     FOR LAYER  11

             INITIAL HEAD =   0.00000     FOR LAYER  12

             INITIAL HEAD =   0.00000     FOR LAYER  13

             INITIAL HEAD =   0.00000     FOR LAYER  14

             INITIAL HEAD =   0.00000     FOR LAYER  15

             INITIAL HEAD =   0.00000     FOR LAYER  16

             INITIAL HEAD =   0.00000     FOR LAYER  17

             INITIAL HEAD =   0.00000     FOR LAYER  18

             INITIAL HEAD =   0.00000     FOR LAYER  19

             INITIAL HEAD =   0.00000     FOR LAYER  20

             INITIAL HEAD =   0.00000     FOR LAYER  21

             INITIAL HEAD =   0.00000     FOR LAYER  22

             INITIAL HEAD =   0.00000     FOR LAYER  23

             INITIAL HEAD =   0.00000     FOR LAYER  24

             INITIAL HEAD =   0.00000     FOR LAYER  25

             INITIAL HEAD =   0.00000     FOR LAYER  26

             INITIAL HEAD =   0.00000     FOR LAYER  27

             INITIAL HEAD =   0.00000     FOR LAYER  28

             INITIAL HEAD =   0.00000     FOR LAYER  29

             INITIAL HEAD =   0.00000     FOR LAYER  30

             INITIAL HEAD =   0.00000     FOR LAYER  31

             INITIAL HEAD =   0.00000     FOR LAYER  32

             INITIAL HEAD =   0.00000     FOR LAYER  33

             INITIAL HEAD =   0.00000     FOR LAYER  34

             INITIAL HEAD =   0.00000     FOR LAYER  35

             INITIAL HEAD =   0.00000     FOR LAYER  36

             INITIAL HEAD =   0.00000     FOR LAYER  37

             INITIAL HEAD =   0.00000     FOR LAYER  38

             INITIAL HEAD =   0.00000     FOR LAYER  39

             INITIAL HEAD =   0.00000     FOR LAYER  40

             INITIAL HEAD =   0.00000     FOR LAYER  41

             INITIAL HEAD =   0.00000     FOR LAYER  42

             INITIAL HEAD =   0.00000     FOR LAYER  43

             INITIAL HEAD =   0.00000     FOR LAYER  44

             INITIAL HEAD =   0.00000     FOR LAYER  45

             INITIAL HEAD =   0.00000     FOR LAYER  46

             INITIAL HEAD =   0.00000     FOR LAYER  47

             INITIAL HEAD =   0.00000     FOR LAYER  48

             INITIAL HEAD =   0.00000     FOR LAYER  49

             INITIAL HEAD =   0.00000     FOR LAYER  50
 # OC package for  SEAWAT, generated by Flopy.

 OUTPUT CONTROL IS SPECIFIED ONLY AT TIME STEPS FOR WHICH OUTPUT IS DESIRED
 COMPACT CELL-BY-CELL BUDGET FILES WILL BE WRITTEN
 AUXILIARY DATA WILL BE SAVED IN CELL-BY-CELL BUDGET FILES
 HEAD PRINT FORMAT CODE IS   0    DRAWDOWN PRINT FORMAT CODE IS   0
 HEADS WILL BE SAVED ON UNIT   51    DRAWDOWNS WILL BE SAVED ON UNIT    0


     0 Well parameters
 LAYER NUMBER  AQUIFER TYPE
 ------------  ------------
       1            0
       2            0
       3            0
       4            0
       5            0
       6            0
       7            0
       8            0
       9            0
      10            0
      11            0
      12            0
      13            0
      14            0
      15            0
      16            0
      17            0
      18            0
      19            0
      20            0
      21            0
      22            0
      23            0
      24            0
      25            0
      26            0
      27            0
      28            0
      29            0
      30            0
      31            0
      32            0
      33            0
      34            0
      35            0
      36            0
      37            0
      38            0
      39            0
      40            0
      41            0
      42            0
      43            0
      44            0
      45            0
      46            0
      47            0
      48            0
      49            0
      50            0
                                       WIDTH ALONG ROWS (DELR)  =  0.2000000E-01
                                       WIDTH ALONG COLS (DELC)  =   1.000000    
                                       TOP ELEV. OF 1ST LAYER   =   1.000000    
                                       CELL THICKNESS (DZ)      =  0.2000000E-01 FOR LAYER  1
                                       CELL THICKNESS (DZ)      =  0.2000000E-01 FOR LAYER  2
                                       CELL THICKNESS (DZ)      =  0.2000000E-01 FOR LAYER  3
                                       CELL THICKNESS (DZ)      =  0.2000000E-01 FOR LAYER  4
                                       CELL THICKNESS (DZ)      =  0.2000000E-01 FOR LAYER  5
                                       CELL THICKNESS (DZ)      =  0.2000000E-01 FOR LAYER  6
                                       CELL THICKNESS (DZ)      =  0.2000000E-01 FOR LAYER  7
                                       CELL THICKNESS (DZ)      =  0.2000000E-01 FOR LAYER  8
                                       CELL THICKNESS (DZ)      =  0.2000000E-01 FOR LAYER  9
                                       CELL THICKNESS (DZ)      =  0.2000000E-01 FOR LAYER 10
                                       CELL THICKNESS (DZ)      =  0.2000000E-01 FOR LAYER 11
                                       CELL THICKNESS (DZ)      =  0.2000000E-01 FOR LAYER 12
                                       CELL THICKNESS (DZ)      =  0.2000000E-01 FOR LAYER 13
                                       CELL THICKNESS (DZ)      =  0.2000000E-01 FOR LAYER 14
                                       CELL THICKNESS (DZ)      =  0.2000000E-01 FOR LAYER 15
                                       CELL THICKNESS (DZ)      =  0.2000000E-01 FOR LAYER 16
                                       CELL THICKNESS (DZ)      =  0.2000000E-01 FOR LAYER 17
                                       CELL THICKNESS (DZ)      =  0.2000000E-01 FOR LAYER 18
                                       CELL THICKNESS (DZ)      =  0.2000000E-01 FOR LAYER 19
                                       CELL THICKNESS (DZ)      =  0.2000000E-01 FOR LAYER 20
                                       CELL THICKNESS (DZ)      =  0.2000000E-01 FOR LAYER 21
                                       CELL THICKNESS (DZ)      =  0.2000000E-01 FOR LAYER 22
                                       CELL THICKNESS (DZ)      =  0.2000000E-01 FOR LAYER 23
                                       CELL THICKNESS (DZ)      =  0.2000000E-01 FOR LAYER 24
                                       CELL THICKNESS (DZ)      =  0.2000000E-01 FOR LAYER 25
                                       CELL THICKNESS (DZ)      =  0.2000000E-01 FOR LAYER 26
                                       CELL THICKNESS (DZ)      =  0.2000000E-01 FOR LAYER 27
                                       CELL THICKNESS (DZ)      =  0.2000000E-01 FOR LAYER 28
                                       CELL THICKNESS (DZ)      =  0.2000000E-01 FOR LAYER 29
                                       CELL THICKNESS (DZ)      =  0.2000000E-01 FOR LAYER 30
                                       CELL THICKNESS (DZ)      =  0.2000000E-01 FOR LAYER 31
                                       CELL THICKNESS (DZ)      =  0.2000000E-01 FOR LAYER 32
                                       CELL THICKNESS (DZ)      =  0.2000000E-01 FOR LAYER 33
                                       CELL THICKNESS (DZ)      =  0.2000000E-01 FOR LAYER 34
                                       CELL THICKNESS (DZ)      =  0.2000000E-01 FOR LAYER 35
                                       CELL THICKNESS (DZ)      =  0.2000000E-01 FOR LAYER 36
                                       CELL THICKNESS (DZ)      =  0.2000000E-01 FOR LAYER 37
                                       CELL THICKNESS (DZ)      =  0.2000000E-01 FOR LAYER 38
                                       CELL THICKNESS (DZ)      =  0.2000000E-01 FOR LAYER 39
                                       CELL THICKNESS (DZ)      =  0.2000000E-01 FOR LAYER 40
                                       CELL THICKNESS (DZ)      =  0.2000000E-01 FOR LAYER 41
                                       CELL THICKNESS (DZ)      =  0.2000000E-01 FOR LAYER 42
                                       CELL THICKNESS (DZ)      =  0.2000000E-01 FOR LAYER 43
                                       CELL THICKNESS (DZ)      =  0.2000000E-01 FOR LAYER 44
                                       CELL THICKNESS (DZ)      =  0.2000000E-01 FOR LAYER 45
                                       CELL THICKNESS (DZ)      =  0.2000000E-01 FOR LAYER 46
                                       CELL THICKNESS (DZ)      =  0.2000000E-01 FOR LAYER 47
                                       CELL THICKNESS (DZ)      =  0.2000000E-01 FOR LAYER 48
                                       CELL THICKNESS (DZ)      =  0.2000000E-01 FOR LAYER 49
                                       CELL THICKNESS (DZ)      =  0.2000000E-01 FOR LAYER 50
                                       POROSITY                 =  0.3500000     FOR LAYER  1
                                       POROSITY                 =  0.3500000     FOR LAYER  2
                                       POROSITY                 =  0.3500000     FOR LAYER  3
                                       POROSITY                 =  0.3500000     FOR LAYER  4
                                       POROSITY                 =  0.3500000     FOR LAYER  5
                                       POROSITY                 =  0.3500000     FOR LAYER  6
                                       POROSITY                 =  0.3500000     FOR LAYER  7
                                       POROSITY                 =  0.3500000     FOR LAYER  8
                                       POROSITY                 =  0.3500000     FOR LAYER  9
                                       POROSITY                 =  0.3500000     FOR LAYER 10
                                       POROSITY                 =  0.3500000     FOR LAYER 11
                                       POROSITY                 =  0.3500000     FOR LAYER 12
                                       POROSITY                 =  0.3500000     FOR LAYER 13
                                       POROSITY                 =  0.3500000     FOR LAYER 14
                                       POROSITY                 =  0.3500000     FOR LAYER 15
                                       POROSITY                 =  0.3500000     FOR LAYER 16
                                       POROSITY                 =  0.3500000     FOR LAYER 17
                                       POROSITY                 =  0.3500000     FOR LAYER 18
                                       POROSITY                 =  0.3500000     FOR LAYER 19
                                       POROSITY                 =  0.3500000     FOR LAYER 20
                                       POROSITY                 =  0.3500000     FOR LAYER 21
                                       POROSITY                 =  0.3500000     FOR LAYER 22
                                       POROSITY                 =  0.3500000     FOR LAYER 23
                                       POROSITY                 =  0.3500000     FOR LAYER 24
                                       POROSITY                 =  0.3500000     FOR LAYER 25
                                       POROSITY                 =  0.3500000     FOR LAYER 26
                                       POROSITY                 =  0.3500000     FOR LAYER 27
                                       POROSITY                 =  0.3500000     FOR LAYER 28
                                       POROSITY                 =  0.3500000     FOR LAYER 29
                                       POROSITY                 =  0.3500000     FOR LAYER 30
                                       POROSITY                 =  0.3500000     FOR LAYER 31
                                       POROSITY                 =  0.3500000     FOR LAYER 32
                                       POROSITY                 =  0.3500000     FOR LAYER 33
                                       POROSITY                 =  0.3500000     FOR LAYER 34
                                       POROSITY                 =  0.3500000     FOR LAYER 35
                                       POROSITY                 =  0.3500000     FOR LAYER 36
                                       POROSITY                 =  0.3500000     FOR LAYER 37
                                       POROSITY                 =  0.3500000     FOR LAYER 38
                                       POROSITY                 =  0.3500000     FOR LAYER 39
                                       POROSITY                 =  0.3500000     FOR LAYER 40
                                       POROSITY                 =  0.3500000     FOR LAYER 41
                                       POROSITY                 =  0.3500000     FOR LAYER 42
                                       POROSITY                 =  0.3500000     FOR LAYER 43
                                       POROSITY                 =  0.3500000     FOR LAYER 44
                                       POROSITY                 =  0.3500000     FOR LAYER 45
                                       POROSITY                 =  0.3500000     FOR LAYER 46
                                       POROSITY                 =  0.3500000     FOR LAYER 47
                                       POROSITY                 =  0.3500000     FOR LAYER 48
                                       POROSITY                 =  0.3500000     FOR LAYER 49
                                       POROSITY                 =  0.3500000     FOR LAYER 50
                                       CONCN. BOUNDARY ARRAY    =              1 FOR LAYER  1
                                       CONCN. BOUNDARY ARRAY    =              1 FOR LAYER  2
                                       CONCN. BOUNDARY ARRAY    =              1 FOR LAYER  3
                                       CONCN. BOUNDARY ARRAY    =              1 FOR LAYER  4
                                       CONCN. BOUNDARY ARRAY    =              1 FOR LAYER  5
                                       CONCN. BOUNDARY ARRAY    =              1 FOR LAYER  6
                                       CONCN. BOUNDARY ARRAY    =              1 FOR LAYER  7
                                       CONCN. BOUNDARY ARRAY    =              1 FOR LAYER  8
                                       CONCN. BOUNDARY ARRAY    =              1 FOR LAYER  9
                                       CONCN. BOUNDARY ARRAY    =              1 FOR LAYER 10
                                       CONCN. BOUNDARY ARRAY    =              1 FOR LAYER 11
                                       CONCN. BOUNDARY ARRAY    =              1 FOR LAYER 12
                                       CONCN. BOUNDARY ARRAY    =              1 FOR LAYER 13
                                       CONCN. BOUNDARY ARRAY    =              1 FOR LAYER 14
                                       CONCN. BOUNDARY ARRAY    =              1 FOR LAYER 15
                                       CONCN. BOUNDARY ARRAY    =              1 FOR LAYER 16
                                       CONCN. BOUNDARY ARRAY    =              1 FOR LAYER 17
                                       CONCN. BOUNDARY ARRAY    =              1 FOR LAYER 18
                                       CONCN. BOUNDARY ARRAY    =              1 FOR LAYER 19
                                       CONCN. BOUNDARY ARRAY    =              1 FOR LAYER 20
                                       CONCN. BOUNDARY ARRAY    =              1 FOR LAYER 21
                                       CONCN. BOUNDARY ARRAY    =              1 FOR LAYER 22
                                       CONCN. BOUNDARY ARRAY    =              1 FOR LAYER 23
                                       CONCN. BOUNDARY ARRAY    =              1 FOR LAYER 24
                                       CONCN. BOUNDARY ARRAY    =              1 FOR LAYER 25
                                       CONCN. BOUNDARY ARRAY    =              1 FOR LAYER 26
                                       CONCN. BOUNDARY ARRAY    =              1 FOR LAYER 27
                                       CONCN. BOUNDARY ARRAY    =              1 FOR LAYER 28
                                       CONCN. BOUNDARY ARRAY    =              1 FOR LAYER 29
                                       CONCN. BOUNDARY ARRAY    =              1 FOR LAYER 30
                                       CONCN. BOUNDARY ARRAY    =              1 FOR LAYER 31
                                       CONCN. BOUNDARY ARRAY    =              1 FOR LAYER 32
                                       CONCN. BOUNDARY ARRAY    =              1 FOR LAYER 33
                                       CONCN. BOUNDARY ARRAY    =              1 FOR LAYER 34
                                       CONCN. BOUNDARY ARRAY    =              1 FOR LAYER 35
                                       CONCN. BOUNDARY ARRAY    =              1 FOR LAYER 36
                                       CONCN. BOUNDARY ARRAY    =              1 FOR LAYER 37
                                       CONCN. BOUNDARY ARRAY    =              1 FOR LAYER 38
                                       CONCN. BOUNDARY ARRAY    =              1 FOR LAYER 39
                                       CONCN. BOUNDARY ARRAY    =              1 FOR LAYER 40
                                       CONCN. BOUNDARY ARRAY    =              1 FOR LAYER 41
                                       CONCN. BOUNDARY ARRAY    =              1 FOR LAYER 42
                                       CONCN. BOUNDARY ARRAY    =              1 FOR LAYER 43
                                       CONCN. BOUNDARY ARRAY    =              1 FOR LAYER 44
                                       CONCN. BOUNDARY ARRAY    =              1 FOR LAYER 45
                                       CONCN. BOUNDARY ARRAY    =              1 FOR LAYER 46
                                       CONCN. BOUNDARY ARRAY    =              1 FOR LAYER 47
                                       CONCN. BOUNDARY ARRAY    =              1 FOR LAYER 48
                                       CONCN. BOUNDARY ARRAY    =              1 FOR LAYER 49
                                       CONCN. BOUNDARY ARRAY    =              1 FOR LAYER 50
                                       INITIAL CONC.: COMP.  01 =   35.00000     FOR LAYER  1
                                       INITIAL CONC.: COMP.  01 =   35.00000     FOR LAYER  2
                                       INITIAL CONC.: COMP.  01 =   35.00000     FOR LAYER  3
                                       INITIAL CONC.: COMP.  01 =   35.00000     FOR LAYER  4
                                       INITIAL CONC.: COMP.  01 =   35.00000     FOR LAYER  5
                                       INITIAL CONC.: COMP.  01 =   35.00000     FOR LAYER  6
                                       INITIAL CONC.: COMP.  01 =   35.00000     FOR LAYER  7
                                       INITIAL CONC.: COMP.  01 =   35.00000     FOR LAYER  8
                                       INITIAL CONC.: COMP.  01 =   35.00000     FOR LAYER  9
                                       INITIAL CONC.: COMP.  01 =   35.00000     FOR LAYER 10
                                       INITIAL CONC.: COMP.  01 =   35.00000     FOR LAYER 11
                                       INITIAL CONC.: COMP.  01 =   35.00000     FOR LAYER 12
                                       INITIAL CONC.: COMP.  01 =   35.00000     FOR LAYER 13
                                       INITIAL CONC.: COMP.  01 =   35.00000     FOR LAYER 14
                                       INITIAL CONC.: COMP.  01 =   35.00000     FOR LAYER 15
                                       INITIAL CONC.: COMP.  01 =   35.00000     FOR LAYER 16
                                       INITIAL CONC.: COMP.  01 =   35.00000     FOR LAYER 17
                                       INITIAL CONC.: COMP.  01 =   35.00000     FOR LAYER 18
                                       INITIAL CONC.: COMP.  01 =   35.00000     FOR LAYER 19
                                       INITIAL CONC.: COMP.  01 =   35.00000     FOR LAYER 20
                                       INITIAL CONC.: COMP.  01 =   35.00000     FOR LAYER 21
                                       INITIAL CONC.: COMP.  01 =   35.00000     FOR LAYER 22
                                       INITIAL CONC.: COMP.  01 =   35.00000     FOR LAYER 23
                                       INITIAL CONC.: COMP.  01 =   35.00000     FOR LAYER 24
                                       INITIAL CONC.: COMP.  01 =   35.00000     FOR LAYER 25
                                       INITIAL CONC.: COMP.  01 =   35.00000     FOR LAYER 26
                                       INITIAL CONC.: COMP.  01 =   35.00000     FOR LAYER 27
                                       INITIAL CONC.: COMP.  01 =   35.00000     FOR LAYER 28
                                       INITIAL CONC.: COMP.  01 =   35.00000     FOR LAYER 29
                                       INITIAL CONC.: COMP.  01 =   35.00000     FOR LAYER 30
                                       INITIAL CONC.: COMP.  01 =   35.00000     FOR LAYER 31
                                       INITIAL CONC.: COMP.  01 =   35.00000     FOR LAYER 32
                                       INITIAL CONC.: COMP.  01 =   35.00000     FOR LAYER 33
                                       INITIAL CONC.: COMP.  01 =   35.00000     FOR LAYER 34
                                       INITIAL CONC.: COMP.  01 =   35.00000     FOR LAYER 35
                                       INITIAL CONC.: COMP.  01 =   35.00000     FOR LAYER 36
                                       INITIAL CONC.: COMP.  01 =   35.00000     FOR LAYER 37
                                       INITIAL CONC.: COMP.  01 =   35.00000     FOR LAYER 38
                                       INITIAL CONC.: COMP.  01 =   35.00000     FOR LAYER 39
                                       INITIAL CONC.: COMP.  01 =   35.00000     FOR LAYER 40
                                       INITIAL CONC.: COMP.  01 =   35.00000     FOR LAYER 41
                                       INITIAL CONC.: COMP.  01 =   35.00000     FOR LAYER 42
                                       INITIAL CONC.: COMP.  01 =   35.00000     FOR LAYER 43
                                       INITIAL CONC.: COMP.  01 =   35.00000     FOR LAYER 44
                                       INITIAL CONC.: COMP.  01 =   35.00000     FOR LAYER 45
                                       INITIAL CONC.: COMP.  01 =   35.00000     FOR LAYER 46
                                       INITIAL CONC.: COMP.  01 =   35.00000     FOR LAYER 47
                                       INITIAL CONC.: COMP.  01 =   35.00000     FOR LAYER 48
                                       INITIAL CONC.: COMP.  01 =   35.00000     FOR LAYER 49
                                       INITIAL CONC.: COMP.  01 =   35.00000     FOR LAYER 50

 VALUE INDICATING INACTIVE CONCENTRATION CELLS =   0.1000000E+31
 MINIMUM SATURATED THICKNESS [THKMIN] ALLOWED =  0.0100 OF TOTAL CELL THICKNESS


 OUTPUT CONTROL OPTIONS
 ----------------------

 DO NOT PRINT CELL CONCENTRATION
 DO NOT PRINT PARTICLE NUMBER IN EACH CELL
 DO NOT PRINT RETARDATION FACTOR
 DO NOT PRINT DISPERSION COEFFICIENT
 SAVE DISSOLVED PHASE CONCENTRATIONS IN UNFORMATTED FILES [MT3Dnnn.UCN]
  FOR EACH SPECIES ON UNITS 201 AND ABOVE

 SIMULATION RESULTS ARE SAVED EVERY   5 TRANSPORT STEP(S)

 NUMBER OF OBSERVATION POINTS =    0

 DO NOT SAVE ONE-LINE SUMMARY OF MASS BUDGETS

 MAXIMUM LENGTH ALONG THE X (J) AXIS =   2.000000    
 MAXIMUM LENGTH ALONG THE Y (I) AXIS =   1.000000    
 MAXIMUM LENGTH ALONG THE Z (K) AXIS =   1.000000    


 ADVECTION SOLUTION OPTIONS
 --------------------------

 ADVECTION IS SOLVED WITH THE UPSTREAM FINITE DIFFERENCE SCHEME
 COURANT NUMBER ALLOWED IN SOLVING THE ADVECTION TERM = 0.750    


 DISPERSION INPUT PARAMETERS
 ---------------------------

                                       LONG. DISPERSIVITY (AL)  =   0.000000     FOR LAYER  1
                                       LONG. DISPERSIVITY (AL)  =   0.000000     FOR LAYER  2
                                       LONG. DISPERSIVITY (AL)  =   0.000000     FOR LAYER  3
                                       LONG. DISPERSIVITY (AL)  =   0.000000     FOR LAYER  4
                                       LONG. DISPERSIVITY (AL)  =   0.000000     FOR LAYER  5
                                       LONG. DISPERSIVITY (AL)  =   0.000000     FOR LAYER  6
                                       LONG. DISPERSIVITY (AL)  =   0.000000     FOR LAYER  7
                                       LONG. DISPERSIVITY (AL)  =   0.000000     FOR LAYER  8
                                       LONG. DISPERSIVITY (AL)  =   0.000000     FOR LAYER  9
                                       LONG. DISPERSIVITY (AL)  =   0.000000     FOR LAYER 10
                                       LONG. DISPERSIVITY (AL)  =   0.000000     FOR LAYER 11
                                       LONG. DISPERSIVITY (AL)  =   0.000000     FOR LAYER 12
                                       LONG. DISPERSIVITY (AL)  =   0.000000     FOR LAYER 13
                                       LONG. DISPERSIVITY (AL)  =   0.000000     FOR LAYER 14
                                       LONG. DISPERSIVITY (AL)  =   0.000000     FOR LAYER 15
                                       LONG. DISPERSIVITY (AL)  =   0.000000     FOR LAYER 16
                                       LONG. DISPERSIVITY (AL)  =   0.000000     FOR LAYER 17
                                       LONG. DISPERSIVITY (AL)  =   0.000000     FOR LAYER 18
                                       LONG. DISPERSIVITY (AL)  =   0.000000     FOR LAYER 19
                                       LONG. DISPERSIVITY (AL)  =   0.000000     FOR LAYER 20
                                       LONG. DISPERSIVITY (AL)  =   0.000000     FOR LAYER 21
                                       LONG. DISPERSIVITY (AL)  =   0.000000     FOR LAYER 22
                                       LONG. DISPERSIVITY (AL)  =   0.000000     FOR LAYER 23
                                       LONG. DISPERSIVITY (AL)  =   0.000000     FOR LAYER 24
                                       LONG. DISPERSIVITY (AL)  =   0.000000     FOR LAYER 25
                                       LONG. DISPERSIVITY (AL)  =   0.000000     FOR LAYER 26
                                       LONG. DISPERSIVITY (AL)  =   0.000000     FOR LAYER 27
                                       LONG. DISPERSIVITY (AL)  =   0.000000     FOR LAYER 28
                                       LONG. DISPERSIVITY (AL)  =   0.000000     FOR LAYER 29
                                       LONG. DISPERSIVITY (AL)  =   0.000000     FOR LAYER 30
                                       LONG. DISPERSIVITY (AL)  =   0.000000     FOR LAYER 31
                                       LONG. DISPERSIVITY (AL)  =   0.000000     FOR LAYER 32
                                       LONG. DISPERSIVITY (AL)  =   0.000000     FOR LAYER 33
                                       LONG. DISPERSIVITY (AL)  =   0.000000     FOR LAYER 34
                                       LONG. DISPERSIVITY (AL)  =   0.000000     FOR LAYER 35
                                       LONG. DISPERSIVITY (AL)  =   0.000000     FOR LAYER 36
                                       LONG. DISPERSIVITY (AL)  =   0.000000     FOR LAYER 37
                                       LONG. DISPERSIVITY (AL)  =   0.000000     FOR LAYER 38
                                       LONG. DISPERSIVITY (AL)  =   0.000000     FOR LAYER 39
                                       LONG. DISPERSIVITY (AL)  =   0.000000     FOR LAYER 40
                                       LONG. DISPERSIVITY (AL)  =   0.000000     FOR LAYER 41
                                       LONG. DISPERSIVITY (AL)  =   0.000000     FOR LAYER 42
                                       LONG. DISPERSIVITY (AL)  =   0.000000     FOR LAYER 43
                                       LONG. DISPERSIVITY (AL)  =   0.000000     FOR LAYER 44
                                       LONG. DISPERSIVITY (AL)  =   0.000000     FOR LAYER 45
                                       LONG. DISPERSIVITY (AL)  =   0.000000     FOR LAYER 46
                                       LONG. DISPERSIVITY (AL)  =   0.000000     FOR LAYER 47
                                       LONG. DISPERSIVITY (AL)  =   0.000000     FOR LAYER 48
                                       LONG. DISPERSIVITY (AL)  =   0.000000     FOR LAYER 49
                                       LONG. DISPERSIVITY (AL)  =   0.000000     FOR LAYER 50
                                       H. TRANS./LONG. DISP.    =   1.000000    
                                       V. TRANS./LONG. DISP.    =   1.000000    
                                       DIFFUSION COEFFICIENT    =  0.5702400    



                                               SOLUTION BY THE GENERALIZED CONJUGATE GRADIENT METHOD
                                               -----------------------------------------------------
                                     MAXIMUM OUTER ITERATIONS ALLOWED FOR CLOSURE =        1
                                     MAXIMUM INNER ITERATIONS ALLOWED FOR CLOSURE =      500
                                                    PRECONDITIONING TYPE SELECTED =    1
                                                           ACCELERATION PARAMETER =     1.0000    
                                       CONCENTRATION CHANGE CRITERION FOR CLOSURE =    0.10000E-06
                                       GCG CONCENTRATION CHANGE PRINTOUT INTERVAL =      999


                                   ++++++++++++++++++++++++++++++++++++++++++++++++++++++++++++++
                                                       STRESS PERIOD NO.  001
                                   ++++++++++++++++++++++++++++++++++++++++++++++++++++++++++++++


 LENGTH OF CURRENT STRESS PERIOD =   1.500000    
 NUMBER OF TIME STEPS FOR CURRENT STRESS PERIOD =   15
 TIME STEP MULTIPLIER USED IN FLOW SOLUTION =   1.000000    
 USER-SPECIFIED TRANSPORT STEPSIZE =  0.1000000E-02D   
 MAXIMUM NUMBER OF TRANSPORT STEPS ALLOWED  IN ONE FLOW TIME STEP =     50000
 MULTIPLIER FOR SUCCESSIVE TRANSPORT STEPS  [USED IN IMPLICIT SCHEMES] =     1.000
 MAXIMUM TRANSPORT STEP SIZE  [USED IN IMPLICIT SCHEMES] =   0.000000    D   
1
                            STRESS PERIOD NO.    1, LENGTH =   1.500000    
                            -----------------------------------------------

                              NUMBER OF TIME STEPS =    15

                               MULTIPLIER FOR DELT =     1.000

                            INITIAL TIME STEP SIZE =  0.1000000    

       NO    LAYER   ROW   COLUMN   CONCENTRATION       TYPE            COMPONENT
       2       1       1     100       35.00000         CONSTANT HEAD       1
       4       2       1     100       35.00000         CONSTANT HEAD       1
       6       3       1     100       35.00000         CONSTANT HEAD       1
       8       4       1     100       35.00000         CONSTANT HEAD       1
      10       5       1     100       35.00000         CONSTANT HEAD       1
      12       6       1     100       35.00000         CONSTANT HEAD       1
      14       7       1     100       35.00000         CONSTANT HEAD       1
      16       8       1     100       35.00000         CONSTANT HEAD       1
      18       9       1     100       35.00000         CONSTANT HEAD       1
      20      10       1     100       35.00000         CONSTANT HEAD       1
      22      11       1     100       35.00000         CONSTANT HEAD       1
      24      12       1     100       35.00000         CONSTANT HEAD       1
      26      13       1     100       35.00000         CONSTANT HEAD       1
      28      14       1     100       35.00000         CONSTANT HEAD       1
      30      15       1     100       35.00000         CONSTANT HEAD       1
      32      16       1     100       35.00000         CONSTANT HEAD       1
      34      17       1     100       35.00000         CONSTANT HEAD       1
      36      18       1     100       35.00000         CONSTANT HEAD       1
      38      19       1     100       35.00000         CONSTANT HEAD       1
      40      20       1     100       35.00000         CONSTANT HEAD       1
      42      21       1     100       35.00000         CONSTANT HEAD       1
      44      22       1     100       35.00000         CONSTANT HEAD       1
      46      23       1     100       35.00000         CONSTANT HEAD       1
      48      24       1     100       35.00000         CONSTANT HEAD       1
      50      25       1     100       35.00000         CONSTANT HEAD       1
      52      26       1     100       35.00000         CONSTANT HEAD       1
      54      27       1     100       35.00000         CONSTANT HEAD       1
      56      28       1     100       35.00000         CONSTANT HEAD       1
      58      29       1     100       35.00000         CONSTANT HEAD       1
      60      30       1     100       35.00000         CONSTANT HEAD       1
      62      31       1     100       35.00000         CONSTANT HEAD       1
      64      32       1     100       35.00000         CONSTANT HEAD       1
      66      33       1     100       35.00000         CONSTANT HEAD       1
      68      34       1     100       35.00000         CONSTANT HEAD       1
      70      35       1     100       35.00000         CONSTANT HEAD       1
      72      36       1     100       35.00000         CONSTANT HEAD       1
      74      37       1     100       35.00000         CONSTANT HEAD       1
      76      38       1     100       35.00000         CONSTANT HEAD       1
      78      39       1     100       35.00000         CONSTANT HEAD       1
      80      40       1     100       35.00000         CONSTANT HEAD       1
      82      41       1     100       35.00000         CONSTANT HEAD       1
      84      42       1     100       35.00000         CONSTANT HEAD       1
      86      43       1     100       35.00000         CONSTANT HEAD       1
      88      44       1     100       35.00000         CONSTANT HEAD       1
      90      45       1     100       35.00000         CONSTANT HEAD       1
      92      46       1     100       35.00000         CONSTANT HEAD       1
      94      47       1     100       35.00000         CONSTANT HEAD       1
      96      48       1     100       35.00000         CONSTANT HEAD       1
      98      49       1     100       35.00000         CONSTANT HEAD       1
     100      50       1     100       35.00000         CONSTANT HEAD       1

 WELL NO.  LAYER   ROW   COL   STRESS RATE         
 --------------------------------------------------
      1      1      1      1      0.1140    
      2      2      1      1      0.1140    
      3      3      1      1      0.1140    
      4      4      1      1      0.1140    
      5      5      1      1      0.1140    
      6      6      1      1      0.1140    
      7      7      1      1      0.1140    
      8      8      1      1      0.1140    
      9      9      1      1      0.1140    
     10     10      1      1      0.1140    
     11     11      1      1      0.1140    
     12     12      1      1      0.1140    
     13     13      1      1      0.1140    
     14     14      1      1      0.1140    
     15     15      1      1      0.1140    
     16     16      1      1      0.1140    
     17     17      1      1      0.1140    
     18     18      1      1      0.1140    
     19     19      1      1      0.1140    
     20     20      1      1      0.1140    
     21     21      1      1      0.1140    
     22     22      1      1      0.1140    
     23     23      1      1      0.1140    
     24     24      1      1      0.1140    
     25     25      1      1      0.1140    
     26     26      1      1      0.1140    
     27     27      1      1      0.1140    
     28     28      1      1      0.1140    
     29     29      1      1      0.1140    
     30     30      1      1      0.1140    
     31     31      1      1      0.1140    
     32     32      1      1      0.1140    
     33     33      1      1      0.1140    
     34     34      1      1      0.1140    
     35     35      1      1      0.1140    
     36     36      1      1      0.1140    
     37     37      1      1      0.1140    
     38     38      1      1      0.1140    
     39     39      1      1      0.1140    
     40     40      1      1      0.1140    
     41     41      1      1      0.1140    
     42     42      1      1      0.1140    
     43     43      1      1      0.1140    
     44     44      1      1      0.1140    
     45     45      1      1      0.1140    
     46     46      1      1      0.1140    
     47     47      1      1      0.1140    
     48     48      1      1      0.1140    
     49     49      1      1      0.1140    
     50     50      1      1      0.1140    

     50 WELLS


                                          ================================================
                                                         FROM TIME =   0.0000     TO   0.10000    

 
 SOLVING FOR HEAD 
 FLOW MODEL IS STEADY-STATE
 FLOW MODEL CONTAINS CONSTANT-HEAD CELLS


 MAXIMUM STEPSIZE DURING WHICH ANY PARTICLE CANNOT MOVE MORE THAN ONE CELL
 = 0.1258E-02(WHEN MIN. R.F.=1)  AT K=  43, I=   1, J=  99

 MAXIMUM STEPSIZE WHICH MEETS STABILITY CRITERION OF THE ADVECTION TERM
 (FOR PURE FINITE-DIFFERENCE OPTION, MIXELM=0) 
 = 0.1258E-02(WHEN MIN. R.F.=1)  AT K=   7, I=   1, J=  94


 TOTAL NUMBER OF POINT SOURCES/SINKS PRESENT IN THE FLOW MODEL =   100

 MAXIMUM STEPSIZE WHICH MEETS STABILITY CRITERION OF THE SINK & SOURCE TERM
 = 0.1228E-02(WHEN MIN. R.F.=1)  AT K=   1, I=   1, J=   1

 MAXIMUM STEPSIZE WHICH MEETS STABILITY CRITERION OF THE DISPERSION TERM
 = 0.1754E-03(WHEN MIN. R.F.=1)  AT K=   1, I=   1, J=   1


     1 CALLS TO GCG PACKAGE FOR TRANSPORT TIME STEP   1 IN FLOW TIME STEP   1 STRESS PERIOD   1
    35 TOTAL ITERATIONS

 OUTPUT CONTROL FOR STRESS PERIOD    1   TIME STEP   1
    SAVE HEAD FOR ALL LAYERS
    SAVE BUDGET
 
 SOLVING FOR HEAD 
 FLOW MODEL IS STEADY-STATE
 FLOW MODEL CONTAINS CONSTANT-HEAD CELLS


 MAXIMUM STEPSIZE DURING WHICH ANY PARTICLE CANNOT MOVE MORE THAN ONE CELL
 = 0.8129E-03(WHEN MIN. R.F.=1)  AT K=   1, I=   1, J=   3

 MAXIMUM STEPSIZE WHICH MEETS STABILITY CRITERION OF THE ADVECTION TERM
 (FOR PURE FINITE-DIFFERENCE OPTION, MIXELM=0) 
 = 0.7616E-03(WHEN MIN. R.F.=1)  AT K=  23, I=   1, J=   2


 TOTAL NUMBER OF POINT SOURCES/SINKS PRESENT IN THE FLOW MODEL =   100

 MAXIMUM STEPSIZE WHICH MEETS STABILITY CRITERION OF THE SINK & SOURCE TERM
 = 0.1228E-02(WHEN MIN. R.F.=1)  AT K=   1, I=   1, J=   1

 MAXIMUM STEPSIZE WHICH MEETS STABILITY CRITERION OF THE DISPERSION TERM
 = 0.1754E-03(WHEN MIN. R.F.=1)  AT K=   1, I=   1, J=   1
     1 CALLS TO GCG PACKAGE FOR TRANSPORT TIME STEP   2 IN FLOW TIME STEP   1 STRESS PERIOD   1
    35 TOTAL ITERATIONS
 
 SOLVING FOR HEAD 
 FLOW MODEL IS STEADY-STATE
 FLOW MODEL CONTAINS CONSTANT-HEAD CELLS


 MAXIMUM STEPSIZE DURING WHICH ANY PARTICLE CANNOT MOVE MORE THAN ONE CELL
 = 0.6744E-03(WHEN MIN. R.F.=1)  AT K=   1, I=   1, J=   4

 MAXIMUM STEPSIZE WHICH MEETS STABILITY CRITERION OF THE ADVECTION TERM
 (FOR PURE FINITE-DIFFERENCE OPTION, MIXELM=0) 
 = 0.5730E-03(WHEN MIN. R.F.=1)  AT K=  23, I=   1, J=   2


 TOTAL NUMBER OF POINT SOURCES/SINKS PRESENT IN THE FLOW MODEL =   100

 MAXIMUM STEPSIZE WHICH MEETS STABILITY CRITERION OF THE SINK & SOURCE TERM
 = 0.1228E-02(WHEN MIN. R.F.=1)  AT K=   1, I=   1, J=   1

 MAXIMUM STEPSIZE WHICH MEETS STABILITY CRITERION OF THE DISPERSION TERM
 = 0.1754E-03(WHEN MIN. R.F.=1)  AT K=   1, I=   1, J=   1
     1 CALLS TO GCG PACKAGE FOR TRANSPORT TIME STEP   3 IN FLOW TIME STEP   1 STRESS PERIOD   1
    34 TOTAL ITERATIONS
 
 SOLVING FOR HEAD 
 FLOW MODEL IS STEADY-STATE
 FLOW MODEL CONTAINS CONSTANT-HEAD CELLS


 MAXIMUM STEPSIZE DURING WHICH ANY PARTICLE CANNOT MOVE MORE THAN ONE CELL
 = 0.6037E-03(WHEN MIN. R.F.=1)  AT K=   1, I=   1, J=   5

 MAXIMUM STEPSIZE WHICH MEETS STABILITY CRITERION OF THE ADVECTION TERM
 (FOR PURE FINITE-DIFFERENCE OPTION, MIXELM=0) 
 = 0.4882E-03(WHEN MIN. R.F.=1)  AT K=  23, I=   1, J=   2


 TOTAL NUMBER OF POINT SOURCES/SINKS PRESENT IN THE FLOW MODEL =   100

 MAXIMUM STEPSIZE WHICH MEETS STABILITY CRITERION OF THE SINK & SOURCE TERM
 = 0.1228E-02(WHEN MIN. R.F.=1)  AT K=   1, I=   1, J=   1

 MAXIMUM STEPSIZE WHICH MEETS STABILITY CRITERION OF THE DISPERSION TERM
 = 0.1754E-03(WHEN MIN. R.F.=1)  AT K=   1, I=   1, J=   1
     1 CALLS TO GCG PACKAGE FOR TRANSPORT TIME STEP   4 IN FLOW TIME STEP   1 STRESS PERIOD   1
    33 TOTAL ITERATIONS
 
 SOLVING FOR HEAD 
 FLOW MODEL IS STEADY-STATE
 FLOW MODEL CONTAINS CONSTANT-HEAD CELLS


 MAXIMUM STEPSIZE DURING WHICH ANY PARTICLE CANNOT MOVE MORE THAN ONE CELL
 = 0.5594E-03(WHEN MIN. R.F.=1)  AT K=  26, I=   1, J=   1

 MAXIMUM STEPSIZE WHICH MEETS STABILITY CRITERION OF THE ADVECTION TERM
 (FOR PURE FINITE-DIFFERENCE OPTION, MIXELM=0) 
 = 0.4437E-03(WHEN MIN. R.F.=1)  AT K=  23, I=   1, J=   2


 TOTAL NUMBER OF POINT SOURCES/SINKS PRESENT IN THE FLOW MODEL =   100

 MAXIMUM STEPSIZE WHICH MEETS STABILITY CRITERION OF THE SINK & SOURCE TERM
 = 0.1228E-02(WHEN MIN. R.F.=1)  AT K=   1, I=   1, J=   1

 MAXIMUM STEPSIZE WHICH MEETS STABILITY CRITERION OF THE DISPERSION TERM
 = 0.1754E-03(WHEN MIN. R.F.=1)  AT K=   1, I=   1, J=   1
     1 CALLS TO GCG PACKAGE FOR TRANSPORT TIME STEP   5 IN FLOW TIME STEP   1 STRESS PERIOD   1
    33 TOTAL ITERATIONS



 >>>>>>>>>>>>>>>>>>>>>>>>>>>>>>>>>>>>>>>>>>>>>>>>>>>>>>>FOR COMPONENT NO. 01<<<<<<<<<<<<<<<<<<<<<<<<<<<<<<<<<<<<<<<<<<<<<<<<<<<<<<<


                                            -------------------------------------------
                                                      TRANSPORT STEP NO.    5
                                            -------------------------------------------

 TOTAL ELAPSED TIME SINCE BEGINNING OF SIMULATION =  0.5000000E-02D   
 .....................................................................

                     CUMULATIVE MASS BUDGETS AT END OF TRANSPORT STEP    5, TIME STEP    1, STRESS PERIOD    1
                     ------------------------------------------------------------------------------------------

                                                             IN                           OUT
                                                      ----------------             ----------------
                               CONSTANT CONCENTRATION:    0.000000                    0.000000    
                                        CONSTANT HEAD:    0.000000                  -0.9928606    
                                                WELLS:    0.000000                    0.000000    
                               MASS STOR (FLOW MODEL):    0.000000                    0.000000    
                                MASS STORAGE (SOLUTE):   0.9928602                  -0.1780165E-07
                            ---------------------------------------------------------------------------
                                              [TOTAL]:   0.9928602     KG           -0.9928607     KG  

                                                          NET (IN - OUT):  -0.5000849E-06
                                                   DISCREPANCY (PERCENT):  -0.5036810E-04
 
 SOLVING FOR HEAD 
 FLOW MODEL IS STEADY-STATE
 FLOW MODEL CONTAINS CONSTANT-HEAD CELLS


 MAXIMUM STEPSIZE DURING WHICH ANY PARTICLE CANNOT MOVE MORE THAN ONE CELL
 = 0.5319E-03(WHEN MIN. R.F.=1)  AT K=   1, I=   1, J=   7

 MAXIMUM STEPSIZE WHICH MEETS STABILITY CRITERION OF THE ADVECTION TERM
 (FOR PURE FINITE-DIFFERENCE OPTION, MIXELM=0) 
 = 0.4185E-03(WHEN MIN. R.F.=1)  AT K=  23, I=   1, J=   2


 TOTAL NUMBER OF POINT SOURCES/SINKS PRESENT IN THE FLOW MODEL =   100

 MAXIMUM STEPSIZE WHICH MEETS STABILITY CRITERION OF THE SINK & SOURCE TERM
 = 0.1228E-02(WHEN MIN. R.F.=1)  AT K=   1, I=   1, J=   1

 MAXIMUM STEPSIZE WHICH MEETS STABILITY CRITERION OF THE DISPERSION TERM
 = 0.1754E-03(WHEN MIN. R.F.=1)  AT K=   1, I=   1, J=   1
     1 CALLS TO GCG PACKAGE FOR TRANSPORT TIME STEP   6 IN FLOW TIME STEP   1 STRESS PERIOD   1
    42 TOTAL ITERATIONS
 
 SOLVING FOR HEAD 
 FLOW MODEL IS STEADY-STATE
 FLOW MODEL CONTAINS CONSTANT-HEAD CELLS


 MAXIMUM STEPSIZE DURING WHICH ANY PARTICLE CANNOT MOVE MORE THAN ONE CELL
 = 0.5119E-03(WHEN MIN. R.F.=1)  AT K=   1, I=   1, J=   8

 MAXIMUM STEPSIZE WHICH MEETS STABILITY CRITERION OF THE ADVECTION TERM
 (FOR PURE FINITE-DIFFERENCE OPTION, MIXELM=0) 
 = 0.4037E-03(WHEN MIN. R.F.=1)  AT K=  23, I=   1, J=   2


 TOTAL NUMBER OF POINT SOURCES/SINKS PRESENT IN THE FLOW MODEL =   100

 MAXIMUM STEPSIZE WHICH MEETS STABILITY CRITERION OF THE SINK & SOURCE TERM
 = 0.1228E-02(WHEN MIN. R.F.=1)  AT K=   1, I=   1, J=   1

 MAXIMUM STEPSIZE WHICH MEETS STABILITY CRITERION OF THE DISPERSION TERM
 = 0.1754E-03(WHEN MIN. R.F.=1)  AT K=   1, I=   1, J=   1
     1 CALLS TO GCG PACKAGE FOR TRANSPORT TIME STEP   7 IN FLOW TIME STEP   1 STRESS PERIOD   1
    40 TOTAL ITERATIONS
 
 SOLVING FOR HEAD 
 FLOW MODEL IS STEADY-STATE
 FLOW MODEL CONTAINS CONSTANT-HEAD CELLS


 MAXIMUM STEPSIZE DURING WHICH ANY PARTICLE CANNOT MOVE MORE THAN ONE CELL
 = 0.4972E-03(WHEN MIN. R.F.=1)  AT K=   1, I=   1, J=  10

 MAXIMUM STEPSIZE WHICH MEETS STABILITY CRITERION OF THE ADVECTION TERM
 (FOR PURE FINITE-DIFFERENCE OPTION, MIXELM=0) 
 = 0.3954E-03(WHEN MIN. R.F.=1)  AT K=  23, I=   1, J=   2


 TOTAL NUMBER OF POINT SOURCES/SINKS PRESENT IN THE FLOW MODEL =   100

 MAXIMUM STEPSIZE WHICH MEETS STABILITY CRITERION OF THE SINK & SOURCE TERM
 = 0.1228E-02(WHEN MIN. R.F.=1)  AT K=   1, I=   1, J=   1

 MAXIMUM STEPSIZE WHICH MEETS STABILITY CRITERION OF THE DISPERSION TERM
 = 0.1754E-03(WHEN MIN. R.F.=1)  AT K=   1, I=   1, J=   1
     1 CALLS TO GCG PACKAGE FOR TRANSPORT TIME STEP   8 IN FLOW TIME STEP   1 STRESS PERIOD   1
    40 TOTAL ITERATIONS
 
 SOLVING FOR HEAD 
 FLOW MODEL IS STEADY-STATE
 FLOW MODEL CONTAINS CONSTANT-HEAD CELLS


 MAXIMUM STEPSIZE DURING WHICH ANY PARTICLE CANNOT MOVE MORE THAN ONE CELL
 = 0.4860E-03(WHEN MIN. R.F.=1)  AT K=   1, I=   1, J=  11

 MAXIMUM STEPSIZE WHICH MEETS STABILITY CRITERION OF THE ADVECTION TERM
 (FOR PURE FINITE-DIFFERENCE OPTION, MIXELM=0) 
 = 0.3912E-03(WHEN MIN. R.F.=1)  AT K=  24, I=   1, J=   2


 TOTAL NUMBER OF POINT SOURCES/SINKS PRESENT IN THE FLOW MODEL =   100

 MAXIMUM STEPSIZE WHICH MEETS STABILITY CRITERION OF THE SINK & SOURCE TERM
 = 0.1228E-02(WHEN MIN. R.F.=1)  AT K=   1, I=   1, J=   1

 MAXIMUM STEPSIZE WHICH MEETS STABILITY CRITERION OF THE DISPERSION TERM
 = 0.1754E-03(WHEN MIN. R.F.=1)  AT K=   1, I=   1, J=   1
     1 CALLS TO GCG PACKAGE FOR TRANSPORT TIME STEP   9 IN FLOW TIME STEP   1 STRESS PERIOD   1
    41 TOTAL ITERATIONS
 
 SOLVING FOR HEAD 
 FLOW MODEL IS STEADY-STATE
 FLOW MODEL CONTAINS CONSTANT-HEAD CELLS


 MAXIMUM STEPSIZE DURING WHICH ANY PARTICLE CANNOT MOVE MORE THAN ONE CELL
 = 0.4779E-03(WHEN MIN. R.F.=1)  AT K=   1, I=   1, J=  12

 MAXIMUM STEPSIZE WHICH MEETS STABILITY CRITERION OF THE ADVECTION TERM
 (FOR PURE FINITE-DIFFERENCE OPTION, MIXELM=0) 
 = 0.3900E-03(WHEN MIN. R.F.=1)  AT K=  24, I=   1, J=   2


 TOTAL NUMBER OF POINT SOURCES/SINKS PRESENT IN THE FLOW MODEL =   100

 MAXIMUM STEPSIZE WHICH MEETS STABILITY CRITERION OF THE SINK & SOURCE TERM
 = 0.1228E-02(WHEN MIN. R.F.=1)  AT K=   1, I=   1, J=   1

 MAXIMUM STEPSIZE WHICH MEETS STABILITY CRITERION OF THE DISPERSION TERM
 = 0.1754E-03(WHEN MIN. R.F.=1)  AT K=   1, I=   1, J=   1
     1 CALLS TO GCG PACKAGE FOR TRANSPORT TIME STEP  10 IN FLOW TIME STEP   1 STRESS PERIOD   1
    44 TOTAL ITERATIONS



 >>>>>>>>>>>>>>>>>>>>>>>>>>>>>>>>>>>>>>>>>>>>>>>>>>>>>>>FOR COMPONENT NO. 01<<<<<<<<<<<<<<<<<<<<<<<<<<<<<<<<<<<<<<<<<<<<<<<<<<<<<<<


                                            -------------------------------------------
[...]

 MAXIMUM STEPSIZE WHICH MEETS STABILITY CRITERION OF THE ADVECTION TERM
 (FOR PURE FINITE-DIFFERENCE OPTION, MIXELM=0) 
 = 0.1139E-03(WHEN MIN. R.F.=1)  AT K=   2, I=   1, J= 100


 TOTAL NUMBER OF POINT SOURCES/SINKS PRESENT IN THE FLOW MODEL =   100

 MAXIMUM STEPSIZE WHICH MEETS STABILITY CRITERION OF THE SINK & SOURCE TERM
 = 0.1228E-02(WHEN MIN. R.F.=1)  AT K=   1, I=   1, J=   1

 MAXIMUM STEPSIZE WHICH MEETS STABILITY CRITERION OF THE DISPERSION TERM
 = 0.1754E-03(WHEN MIN. R.F.=1)  AT K=   1, I=   1, J=   1
     1 CALLS TO GCG PACKAGE FOR TRANSPORT TIME STEP  90 IN FLOW TIME STEP  15 STRESS PERIOD   1
     1 TOTAL ITERATIONS



 >>>>>>>>>>>>>>>>>>>>>>>>>>>>>>>>>>>>>>>>>>>>>>>>>>>>>>>FOR COMPONENT NO. 01<<<<<<<<<<<<<<<<<<<<<<<<<<<<<<<<<<<<<<<<<<<<<<<<<<<<<<<


                                            -------------------------------------------
                                                      TRANSPORT STEP NO.   90
                                            -------------------------------------------

 TOTAL ELAPSED TIME SINCE BEGINNING OF SIMULATION =   1.490000    D   
 .....................................................................

                     CUMULATIVE MASS BUDGETS AT END OF TRANSPORT STEP   90, TIME STEP   15, STRESS PERIOD    1
                     ------------------------------------------------------------------------------------------

                                                             IN                           OUT
                                                      ----------------             ----------------
                               CONSTANT CONCENTRATION:    0.000000                    0.000000    
                                        CONSTANT HEAD:    62.06397                   -82.35456    
                                                WELLS:    0.000000                    0.000000    
                               MASS STOR (FLOW MODEL):    0.000000                    0.000000    
                                MASS STORAGE (SOLUTE):    20.35205                  -0.6121042E-01
                            ---------------------------------------------------------------------------
                                              [TOTAL]:    82.41602     KG            -82.41577     KG  

                                                          NET (IN - OUT):   0.2464833E-03
                                                   DISCREPANCY (PERCENT):   0.2990725E-03
 
 SOLVING FOR HEAD 
 FLOW MODEL IS STEADY-STATE
 FLOW MODEL CONTAINS CONSTANT-HEAD CELLS


 MAXIMUM STEPSIZE DURING WHICH ANY PARTICLE CANNOT MOVE MORE THAN ONE CELL
 = 0.1504E-03(WHEN MIN. R.F.=1)  AT K=   1, I=   1, J=  99

 MAXIMUM STEPSIZE WHICH MEETS STABILITY CRITERION OF THE ADVECTION TERM
 (FOR PURE FINITE-DIFFERENCE OPTION, MIXELM=0) 
 = 0.1139E-03(WHEN MIN. R.F.=1)  AT K=   2, I=   1, J= 100


 TOTAL NUMBER OF POINT SOURCES/SINKS PRESENT IN THE FLOW MODEL =   100

 MAXIMUM STEPSIZE WHICH MEETS STABILITY CRITERION OF THE SINK & SOURCE TERM
 = 0.1228E-02(WHEN MIN. R.F.=1)  AT K=   1, I=   1, J=   1

 MAXIMUM STEPSIZE WHICH MEETS STABILITY CRITERION OF THE DISPERSION TERM
 = 0.1754E-03(WHEN MIN. R.F.=1)  AT K=   1, I=   1, J=   1
     1 CALLS TO GCG PACKAGE FOR TRANSPORT TIME STEP  91 IN FLOW TIME STEP  15 STRESS PERIOD   1
     1 TOTAL ITERATIONS
 
 SOLVING FOR HEAD 
 FLOW MODEL IS STEADY-STATE
 FLOW MODEL CONTAINS CONSTANT-HEAD CELLS


 MAXIMUM STEPSIZE DURING WHICH ANY PARTICLE CANNOT MOVE MORE THAN ONE CELL
 = 0.1504E-03(WHEN MIN. R.F.=1)  AT K=   1, I=   1, J=  99

 MAXIMUM STEPSIZE WHICH MEETS STABILITY CRITERION OF THE ADVECTION TERM
 (FOR PURE FINITE-DIFFERENCE OPTION, MIXELM=0) 
 = 0.1139E-03(WHEN MIN. R.F.=1)  AT K=   2, I=   1, J= 100


 TOTAL NUMBER OF POINT SOURCES/SINKS PRESENT IN THE FLOW MODEL =   100

 MAXIMUM STEPSIZE WHICH MEETS STABILITY CRITERION OF THE SINK & SOURCE TERM
 = 0.1228E-02(WHEN MIN. R.F.=1)  AT K=   1, I=   1, J=   1

 MAXIMUM STEPSIZE WHICH MEETS STABILITY CRITERION OF THE DISPERSION TERM
 = 0.1754E-03(WHEN MIN. R.F.=1)  AT K=   1, I=   1, J=   1
     1 CALLS TO GCG PACKAGE FOR TRANSPORT TIME STEP  92 IN FLOW TIME STEP  15 STRESS PERIOD   1
     1 TOTAL ITERATIONS
 
 SOLVING FOR HEAD 
 FLOW MODEL IS STEADY-STATE
 FLOW MODEL CONTAINS CONSTANT-HEAD CELLS


 MAXIMUM STEPSIZE DURING WHICH ANY PARTICLE CANNOT MOVE MORE THAN ONE CELL
 = 0.1504E-03(WHEN MIN. R.F.=1)  AT K=   1, I=   1, J=  99

 MAXIMUM STEPSIZE WHICH MEETS STABILITY CRITERION OF THE ADVECTION TERM
 (FOR PURE FINITE-DIFFERENCE OPTION, MIXELM=0) 
 = 0.1139E-03(WHEN MIN. R.F.=1)  AT K=   2, I=   1, J= 100


 TOTAL NUMBER OF POINT SOURCES/SINKS PRESENT IN THE FLOW MODEL =   100

 MAXIMUM STEPSIZE WHICH MEETS STABILITY CRITERION OF THE SINK & SOURCE TERM
 = 0.1228E-02(WHEN MIN. R.F.=1)  AT K=   1, I=   1, J=   1

 MAXIMUM STEPSIZE WHICH MEETS STABILITY CRITERION OF THE DISPERSION TERM
 = 0.1754E-03(WHEN MIN. R.F.=1)  AT K=   1, I=   1, J=   1
     1 CALLS TO GCG PACKAGE FOR TRANSPORT TIME STEP  93 IN FLOW TIME STEP  15 STRESS PERIOD   1
     1 TOTAL ITERATIONS
 
 SOLVING FOR HEAD 
 FLOW MODEL IS STEADY-STATE
 FLOW MODEL CONTAINS CONSTANT-HEAD CELLS


 MAXIMUM STEPSIZE DURING WHICH ANY PARTICLE CANNOT MOVE MORE THAN ONE CELL
 = 0.1504E-03(WHEN MIN. R.F.=1)  AT K=   1, I=   1, J=  99

 MAXIMUM STEPSIZE WHICH MEETS STABILITY CRITERION OF THE ADVECTION TERM
 (FOR PURE FINITE-DIFFERENCE OPTION, MIXELM=0) 
 = 0.1139E-03(WHEN MIN. R.F.=1)  AT K=   2, I=   1, J= 100


 TOTAL NUMBER OF POINT SOURCES/SINKS PRESENT IN THE FLOW MODEL =   100

 MAXIMUM STEPSIZE WHICH MEETS STABILITY CRITERION OF THE SINK & SOURCE TERM
 = 0.1228E-02(WHEN MIN. R.F.=1)  AT K=   1, I=   1, J=   1

 MAXIMUM STEPSIZE WHICH MEETS STABILITY CRITERION OF THE DISPERSION TERM
 = 0.1754E-03(WHEN MIN. R.F.=1)  AT K=   1, I=   1, J=   1
     1 CALLS TO GCG PACKAGE FOR TRANSPORT TIME STEP  94 IN FLOW TIME STEP  15 STRESS PERIOD   1
     1 TOTAL ITERATIONS
 
 SOLVING FOR HEAD 
 FLOW MODEL IS STEADY-STATE
 FLOW MODEL CONTAINS CONSTANT-HEAD CELLS


 MAXIMUM STEPSIZE DURING WHICH ANY PARTICLE CANNOT MOVE MORE THAN ONE CELL
 = 0.1504E-03(WHEN MIN. R.F.=1)  AT K=   1, I=   1, J=  99

 MAXIMUM STEPSIZE WHICH MEETS STABILITY CRITERION OF THE ADVECTION TERM
 (FOR PURE FINITE-DIFFERENCE OPTION, MIXELM=0) 
 = 0.1139E-03(WHEN MIN. R.F.=1)  AT K=   2, I=   1, J= 100


 TOTAL NUMBER OF POINT SOURCES/SINKS PRESENT IN THE FLOW MODEL =   100

 MAXIMUM STEPSIZE WHICH MEETS STABILITY CRITERION OF THE SINK & SOURCE TERM
 = 0.1228E-02(WHEN MIN. R.F.=1)  AT K=   1, I=   1, J=   1

 MAXIMUM STEPSIZE WHICH MEETS STABILITY CRITERION OF THE DISPERSION TERM
 = 0.1754E-03(WHEN MIN. R.F.=1)  AT K=   1, I=   1, J=   1
     1 CALLS TO GCG PACKAGE FOR TRANSPORT TIME STEP  95 IN FLOW TIME STEP  15 STRESS PERIOD   1
     1 TOTAL ITERATIONS



 >>>>>>>>>>>>>>>>>>>>>>>>>>>>>>>>>>>>>>>>>>>>>>>>>>>>>>>FOR COMPONENT NO. 01<<<<<<<<<<<<<<<<<<<<<<<<<<<<<<<<<<<<<<<<<<<<<<<<<<<<<<<


                                            -------------------------------------------
                                                      TRANSPORT STEP NO.   95
                                            -------------------------------------------

 TOTAL ELAPSED TIME SINCE BEGINNING OF SIMULATION =   1.495000    D   
 .....................................................................

                     CUMULATIVE MASS BUDGETS AT END OF TRANSPORT STEP   95, TIME STEP   15, STRESS PERIOD    1
                     ------------------------------------------------------------------------------------------

                                                             IN                           OUT
                                                      ----------------             ----------------
                               CONSTANT CONCENTRATION:    0.000000                    0.000000    
                                        CONSTANT HEAD:    62.29445                   -82.58504    
                                                WELLS:    0.000000                    0.000000    
                               MASS STOR (FLOW MODEL):    0.000000                    0.000000    
                                MASS STORAGE (SOLUTE):    20.35205                  -0.6121042E-01
                            ---------------------------------------------------------------------------
                                              [TOTAL]:    82.64650     KG            -82.64625     KG  

                                                          NET (IN - OUT):   0.2480623E-03
                                                   DISCREPANCY (PERCENT):   0.3001491E-03
 
 SOLVING FOR HEAD 
 FLOW MODEL IS STEADY-STATE
 FLOW MODEL CONTAINS CONSTANT-HEAD CELLS


 MAXIMUM STEPSIZE DURING WHICH ANY PARTICLE CANNOT MOVE MORE THAN ONE CELL
 = 0.1504E-03(WHEN MIN. R.F.=1)  AT K=   1, I=   1, J=  99

 MAXIMUM STEPSIZE WHICH MEETS STABILITY CRITERION OF THE ADVECTION TERM
 (FOR PURE FINITE-DIFFERENCE OPTION, MIXELM=0) 
 = 0.1139E-03(WHEN MIN. R.F.=1)  AT K=   2, I=   1, J= 100


 TOTAL NUMBER OF POINT SOURCES/SINKS PRESENT IN THE FLOW MODEL =   100

 MAXIMUM STEPSIZE WHICH MEETS STABILITY CRITERION OF THE SINK & SOURCE TERM
 = 0.1228E-02(WHEN MIN. R.F.=1)  AT K=   1, I=   1, J=   1

 MAXIMUM STEPSIZE WHICH MEETS STABILITY CRITERION OF THE DISPERSION TERM
 = 0.1754E-03(WHEN MIN. R.F.=1)  AT K=   1, I=   1, J=   1
     1 CALLS TO GCG PACKAGE FOR TRANSPORT TIME STEP  96 IN FLOW TIME STEP  15 STRESS PERIOD   1
     1 TOTAL ITERATIONS
 
 SOLVING FOR HEAD 
 FLOW MODEL IS STEADY-STATE
 FLOW MODEL CONTAINS CONSTANT-HEAD CELLS


 MAXIMUM STEPSIZE DURING WHICH ANY PARTICLE CANNOT MOVE MORE THAN ONE CELL
 = 0.1504E-03(WHEN MIN. R.F.=1)  AT K=   1, I=   1, J=  99

 MAXIMUM STEPSIZE WHICH MEETS STABILITY CRITERION OF THE ADVECTION TERM
 (FOR PURE FINITE-DIFFERENCE OPTION, MIXELM=0) 
 = 0.1139E-03(WHEN MIN. R.F.=1)  AT K=   2, I=   1, J= 100


 TOTAL NUMBER OF POINT SOURCES/SINKS PRESENT IN THE FLOW MODEL =   100

 MAXIMUM STEPSIZE WHICH MEETS STABILITY CRITERION OF THE SINK & SOURCE TERM
 = 0.1228E-02(WHEN MIN. R.F.=1)  AT K=   1, I=   1, J=   1

 MAXIMUM STEPSIZE WHICH MEETS STABILITY CRITERION OF THE DISPERSION TERM
 = 0.1754E-03(WHEN MIN. R.F.=1)  AT K=   1, I=   1, J=   1
     1 CALLS TO GCG PACKAGE FOR TRANSPORT TIME STEP  97 IN FLOW TIME STEP  15 STRESS PERIOD   1
     1 TOTAL ITERATIONS
 
 SOLVING FOR HEAD 
 FLOW MODEL IS STEADY-STATE
 FLOW MODEL CONTAINS CONSTANT-HEAD CELLS


 MAXIMUM STEPSIZE DURING WHICH ANY PARTICLE CANNOT MOVE MORE THAN ONE CELL
 = 0.1504E-03(WHEN MIN. R.F.=1)  AT K=   1, I=   1, J=  99

 MAXIMUM STEPSIZE WHICH MEETS STABILITY CRITERION OF THE ADVECTION TERM
 (FOR PURE FINITE-DIFFERENCE OPTION, MIXELM=0) 
 = 0.1139E-03(WHEN MIN. R.F.=1)  AT K=   2, I=   1, J= 100


 TOTAL NUMBER OF POINT SOURCES/SINKS PRESENT IN THE FLOW MODEL =   100

 MAXIMUM STEPSIZE WHICH MEETS STABILITY CRITERION OF THE SINK & SOURCE TERM
 = 0.1228E-02(WHEN MIN. R.F.=1)  AT K=   1, I=   1, J=   1

 MAXIMUM STEPSIZE WHICH MEETS STABILITY CRITERION OF THE DISPERSION TERM
 = 0.1754E-03(WHEN MIN. R.F.=1)  AT K=   1, I=   1, J=   1
     1 CALLS TO GCG PACKAGE FOR TRANSPORT TIME STEP  98 IN FLOW TIME STEP  15 STRESS PERIOD   1
     1 TOTAL ITERATIONS
 
 SOLVING FOR HEAD 
 FLOW MODEL IS STEADY-STATE
 FLOW MODEL CONTAINS CONSTANT-HEAD CELLS


 MAXIMUM STEPSIZE DURING WHICH ANY PARTICLE CANNOT MOVE MORE THAN ONE CELL
 = 0.1504E-03(WHEN MIN. R.F.=1)  AT K=   1, I=   1, J=  99

 MAXIMUM STEPSIZE WHICH MEETS STABILITY CRITERION OF THE ADVECTION TERM
 (FOR PURE FINITE-DIFFERENCE OPTION, MIXELM=0) 
 = 0.1139E-03(WHEN MIN. R.F.=1)  AT K=   2, I=   1, J= 100


 TOTAL NUMBER OF POINT SOURCES/SINKS PRESENT IN THE FLOW MODEL =   100

 MAXIMUM STEPSIZE WHICH MEETS STABILITY CRITERION OF THE SINK & SOURCE TERM
 = 0.1228E-02(WHEN MIN. R.F.=1)  AT K=   1, I=   1, J=   1

 MAXIMUM STEPSIZE WHICH MEETS STABILITY CRITERION OF THE DISPERSION TERM
 = 0.1754E-03(WHEN MIN. R.F.=1)  AT K=   1, I=   1, J=   1
     1 CALLS TO GCG PACKAGE FOR TRANSPORT TIME STEP  99 IN FLOW TIME STEP  15 STRESS PERIOD   1
     1 TOTAL ITERATIONS
 
 SOLVING FOR HEAD 
 FLOW MODEL IS STEADY-STATE
 FLOW MODEL CONTAINS CONSTANT-HEAD CELLS


 MAXIMUM STEPSIZE DURING WHICH ANY PARTICLE CANNOT MOVE MORE THAN ONE CELL
 = 0.1504E-03(WHEN MIN. R.F.=1)  AT K=   1, I=   1, J=  99

 MAXIMUM STEPSIZE WHICH MEETS STABILITY CRITERION OF THE ADVECTION TERM
 (FOR PURE FINITE-DIFFERENCE OPTION, MIXELM=0) 
 = 0.1139E-03(WHEN MIN. R.F.=1)  AT K=   2, I=   1, J= 100


 TOTAL NUMBER OF POINT SOURCES/SINKS PRESENT IN THE FLOW MODEL =   100

 MAXIMUM STEPSIZE WHICH MEETS STABILITY CRITERION OF THE SINK & SOURCE TERM
 = 0.1228E-02(WHEN MIN. R.F.=1)  AT K=   1, I=   1, J=   1

 MAXIMUM STEPSIZE WHICH MEETS STABILITY CRITERION OF THE DISPERSION TERM
 = 0.1754E-03(WHEN MIN. R.F.=1)  AT K=   1, I=   1, J=   1
     1 CALLS TO GCG PACKAGE FOR TRANSPORT TIME STEP 100 IN FLOW TIME STEP  15 STRESS PERIOD   1
     1 TOTAL ITERATIONS



 >>>>>>>>>>>>>>>>>>>>>>>>>>>>>>>>>>>>>>>>>>>>>>>>>>>>>>>FOR COMPONENT NO. 01<<<<<<<<<<<<<<<<<<<<<<<<<<<<<<<<<<<<<<<<<<<<<<<<<<<<<<<


                                            -------------------------------------------
                                                      TRANSPORT STEP NO.  100
                                            -------------------------------------------

 TOTAL ELAPSED TIME SINCE BEGINNING OF SIMULATION =   1.500000    D   
 .....................................................................

                     CUMULATIVE MASS BUDGETS AT END OF TRANSPORT STEP  100, TIME STEP   15, STRESS PERIOD    1
                     ------------------------------------------------------------------------------------------

                                                             IN                           OUT
                                                      ----------------             ----------------
                               CONSTANT CONCENTRATION:    0.000000                    0.000000    
                                        CONSTANT HEAD:    62.52493                   -82.81552    
                                                WELLS:    0.000000                    0.000000    
                               MASS STOR (FLOW MODEL):    0.000000                    0.000000    
                                MASS STORAGE (SOLUTE):    20.35205                  -0.6121042E-01
                            ---------------------------------------------------------------------------
                                              [TOTAL]:    82.87698     KG            -82.87673     KG  

                                                          NET (IN - OUT):   0.2496414E-03
                                                   DISCREPANCY (PERCENT):   0.3012196E-03
 
 SOLVING FOR HEAD 
 FLOW MODEL IS STEADY-STATE
 FLOW MODEL CONTAINS CONSTANT-HEAD CELLS


 MAXIMUM STEPSIZE DURING WHICH ANY PARTICLE CANNOT MOVE MORE THAN ONE CELL
 = 0.1504E-03(WHEN MIN. R.F.=1)  AT K=   1, I=   1, J=  99

 MAXIMUM STEPSIZE WHICH MEETS STABILITY CRITERION OF THE ADVECTION TERM
 (FOR PURE FINITE-DIFFERENCE OPTION, MIXELM=0) 
 = 0.1139E-03(WHEN MIN. R.F.=1)  AT K=   2, I=   1, J= 100


 TOTAL NUMBER OF POINT SOURCES/SINKS PRESENT IN THE FLOW MODEL =   100

 MAXIMUM STEPSIZE WHICH MEETS STABILITY CRITERION OF THE SINK & SOURCE TERM
 = 0.1228E-02(WHEN MIN. R.F.=1)  AT K=   1, I=   1, J=   1

 MAXIMUM STEPSIZE WHICH MEETS STABILITY CRITERION OF THE DISPERSION TERM
 = 0.1754E-03(WHEN MIN. R.F.=1)  AT K=   1, I=   1, J=   1
     1 CALLS TO GCG PACKAGE FOR TRANSPORT TIME STEP 101 IN FLOW TIME STEP  15 STRESS PERIOD   1
     1 TOTAL ITERATIONS
  MAXIMUM CONCENTRATION CHANGES FOR EACH ITERATION:
  MAX. CHANGE LAYER,ROW,COL MAX. CHANGE LAYER,ROW,COL MAX. CHANGE LAYER,ROW,COL MAX. CHANGE LAYER,ROW,COL MAX. CHANGE LAYER,ROW,COL
 ------------------------------------------------------------------------------------------------------------------------------------
    0.000     (  1,  1,  1)



 >>>>>>>>>>>>>>>>>>>>>>>>>>>>>>>>>>>>>>>>>>>>>>>>>>>>>>>FOR COMPONENT NO. 01<<<<<<<<<<<<<<<<<<<<<<<<<<<<<<<<<<<<<<<<<<<<<<<<<<<<<<<


                                            -------------------------------------------
                                                      TRANSPORT STEP NO.  101
                                            -------------------------------------------

 TOTAL ELAPSED TIME SINCE BEGINNING OF SIMULATION =   1.500000    D   
 .....................................................................

                     CUMULATIVE MASS BUDGETS AT END OF TRANSPORT STEP  101, TIME STEP   15, STRESS PERIOD    1
                     ------------------------------------------------------------------------------------------

                                                             IN                           OUT
                                                      ----------------             ----------------
                               CONSTANT CONCENTRATION:    0.000000                    0.000000    
                                        CONSTANT HEAD:    62.52493                   -82.81552    
                                                WELLS:    0.000000                    0.000000    
                               MASS STOR (FLOW MODEL):    0.000000                    0.000000    
                                MASS STORAGE (SOLUTE):    20.35205                  -0.6121042E-01
                            ---------------------------------------------------------------------------
                                              [TOTAL]:    82.87698     KG            -82.87673     KG  

                                                          NET (IN - OUT):   0.2496414E-03
                                                   DISCREPANCY (PERCENT):   0.3012196E-03
1
  MASS BUDGET FOR ENTIRE MODEL AT END OF TIME STEP 15 IN STRESS PERIOD   1
  ------------------------------------------------------------------------------

     CUMULATIVE MASS      M       RATES FOR THIS TIME STEP      M/T
     ------------------                 ------------------------

           IN:                                      IN:
           ---                                      ---
             STORAGE =           0.0000               STORAGE =           0.0000
       CONSTANT HEAD =        1715.3722         CONSTANT HEAD =        1265.7477
               WELLS =        8553.0000                 WELLS =        5702.0000
                DCDT =          14.4828                  DCDT =           0.0000

            TOTAL IN =       10282.8550              TOTAL IN =        6967.7477

          OUT:                                     OUT:
          ----                                     ----
             STORAGE =           0.0000               STORAGE =           0.0000
       CONSTANT HEAD =       10282.8137         CONSTANT HEAD =        6967.7477
               WELLS =           0.0000                 WELLS =           0.0000
                DCDT =       4.1336E-02                  DCDT =           0.0000

           TOTAL OUT =       10282.8550             TOTAL OUT =        6967.7477

            IN - OUT =       4.0079E-06              IN - OUT =       6.1846E-11

 PERCENT DISCREPANCY =           0.00     PERCENT DISCREPANCY =           0.00



0


          TIME SUMMARY AT END OF TRANSPORT STEP  101 IN TIME STEP   15 IN STRESS PERIOD   1
                    SECONDS     MINUTES      HOURS       DAYS        YEARS
                    -----------------------------------------------------------
  TRANS STEP LENGTH 9.59233E-10 1.59872E-11 2.66454E-13 1.11022E-14 3.03962E-17
   TIME STEP LENGTH  8640.0      144.00      2.4000     0.10000     2.73785E-04
 STRESS PERIOD TIME 1.29600E+05  2160.0      36.000      1.5000     4.10678E-03
         TOTAL TIME 1.29600E+05  2160.0      36.000      1.5000     4.10678E-03
1
